*SPICE netlist created from BLIF module cpu by blif2BSpice
.include /usr/share/qflow/tech/osu035/osu035_stdcells.sp
.subckt cpu vdd gnd clk reset DI<0> DI<1> DI<2> DI<3> DI<4> DI<5> DI<6> DI<7> IRQ NMI RDY AB<0> AB<1> AB<2> AB<3> AB<4> AB<5> AB<6> AB<7> AB<8> AB<9> AB<10> AB<11> AB<12> AB<13> AB<14> AB<15> DO<0> DO<1> DO<2> DO<3> DO<4> DO<5> DO<6> DO<7> WE 
XBUFX4_1 vdd gnd _1466_ _1466__bF$buf4 BUFX4
XBUFX4_2 vdd gnd _1466_ _1466__bF$buf3 BUFX4
XBUFX4_3 vdd gnd _1466_ _1466__bF$buf2 BUFX4
XBUFX4_4 vdd gnd _1466_ _1466__bF$buf1 BUFX4
XBUFX4_5 vdd gnd _1466_ _1466__bF$buf0 BUFX4
XBUFX4_6 vdd gnd clk clk_bF$buf11 BUFX4
XBUFX4_7 vdd gnd clk clk_bF$buf10 BUFX4
XBUFX4_8 vdd gnd clk clk_bF$buf9 BUFX4
XBUFX4_9 vdd gnd clk clk_bF$buf8 BUFX4
XBUFX4_10 vdd gnd clk clk_bF$buf7 BUFX4
XBUFX4_11 vdd gnd clk clk_bF$buf6 BUFX4
XBUFX4_12 vdd gnd clk clk_bF$buf5 BUFX4
XBUFX4_13 vdd gnd clk clk_bF$buf4 BUFX4
XBUFX4_14 vdd gnd clk clk_bF$buf3 BUFX4
XBUFX4_15 vdd gnd clk clk_bF$buf2 BUFX4
XBUFX4_16 vdd gnd clk clk_bF$buf1 BUFX4
XBUFX4_17 vdd gnd clk clk_bF$buf0 BUFX4
XBUFX4_18 vdd gnd _936_ _936__bF$buf3 BUFX4
XBUFX4_19 vdd gnd _936_ _936__bF$buf2 BUFX4
XBUFX2_1 vdd gnd _936_ _936__bF$buf1 BUFX2
XBUFX4_20 vdd gnd _936_ _936__bF$buf0 BUFX4
XBUFX4_21 vdd gnd _882_ _882__bF$buf5 BUFX4
XBUFX4_22 vdd gnd _882_ _882__bF$buf4 BUFX4
XBUFX4_23 vdd gnd _882_ _882__bF$buf3 BUFX4
XBUFX4_24 vdd gnd _882_ _882__bF$buf2 BUFX4
XBUFX4_25 vdd gnd _882_ _882__bF$buf1 BUFX4
XBUFX4_26 vdd gnd _882_ _882__bF$buf0 BUFX4
XBUFX2_2 vdd gnd _1717_ _1717__bF$buf3 BUFX2
XBUFX4_27 vdd gnd _1717_ _1717__bF$buf2 BUFX4
XBUFX4_28 vdd gnd _1717_ _1717__bF$buf1 BUFX4
XBUFX4_29 vdd gnd _1717_ _1717__bF$buf0 BUFX4
XBUFX4_30 vdd gnd _886_ _886__bF$buf4 BUFX4
XBUFX4_31 vdd gnd _886_ _886__bF$buf3 BUFX4
XBUFX4_32 vdd gnd _886_ _886__bF$buf2 BUFX4
XBUFX4_33 vdd gnd _886_ _886__bF$buf1 BUFX4
XBUFX4_34 vdd gnd _886_ _886__bF$buf0 BUFX4
XBUFX4_35 vdd gnd _881_ _881__bF$buf7 BUFX4
XBUFX4_36 vdd gnd _881_ _881__bF$buf6 BUFX4
XBUFX4_37 vdd gnd _881_ _881__bF$buf5 BUFX4
XBUFX4_38 vdd gnd _881_ _881__bF$buf4 BUFX4
XBUFX4_39 vdd gnd _881_ _881__bF$buf3 BUFX4
XBUFX4_40 vdd gnd _881_ _881__bF$buf2 BUFX4
XBUFX4_41 vdd gnd _881_ _881__bF$buf1 BUFX4
XBUFX4_42 vdd gnd _881_ _881__bF$buf0 BUFX4
XBUFX4_43 vdd gnd RDY RDY_bF$buf8 BUFX4
XBUFX4_44 vdd gnd RDY RDY_bF$buf7 BUFX4
XBUFX4_45 vdd gnd RDY RDY_bF$buf6 BUFX4
XBUFX4_46 vdd gnd RDY RDY_bF$buf5 BUFX4
XBUFX4_47 vdd gnd RDY RDY_bF$buf4 BUFX4
XBUFX4_48 vdd gnd RDY RDY_bF$buf3 BUFX4
XBUFX4_49 vdd gnd RDY RDY_bF$buf2 BUFX4
XBUFX4_50 vdd gnd RDY RDY_bF$buf1 BUFX4
XBUFX4_51 vdd gnd RDY RDY_bF$buf0 BUFX4
XBUFX4_52 vdd gnd _957_ _957__bF$buf4 BUFX4
XBUFX4_53 vdd gnd _957_ _957__bF$buf3 BUFX4
XBUFX4_54 vdd gnd _957_ _957__bF$buf2 BUFX4
XBUFX4_55 vdd gnd _957_ _957__bF$buf1 BUFX4
XBUFX4_56 vdd gnd _957_ _957__bF$buf0 BUFX4
XBUFX4_57 vdd gnd _885_ _885__bF$buf4 BUFX4
XBUFX4_58 vdd gnd _885_ _885__bF$buf3 BUFX4
XBUFX4_59 vdd gnd _885_ _885__bF$buf2 BUFX4
XBUFX4_60 vdd gnd _885_ _885__bF$buf1 BUFX4
XBUFX4_61 vdd gnd _885_ _885__bF$buf0 BUFX4
XBUFX4_62 vdd gnd _910_ _910__bF$buf4 BUFX4
XBUFX4_63 vdd gnd _910_ _910__bF$buf3 BUFX4
XBUFX4_64 vdd gnd _910_ _910__bF$buf2 BUFX4
XBUFX4_65 vdd gnd _910_ _910__bF$buf1 BUFX4
XBUFX4_66 vdd gnd _910_ _910__bF$buf0 BUFX4
XBUFX2_3 vdd gnd _896_ _896__bF$buf3 BUFX2
XBUFX2_4 vdd gnd _896_ _896__bF$buf2 BUFX2
XBUFX2_5 vdd gnd _896_ _896__bF$buf1 BUFX2
XBUFX2_6 vdd gnd _896_ _896__bF$buf0 BUFX2
XBUFX4_67 vdd gnd _535_ _535__bF$buf4 BUFX4
XBUFX4_68 vdd gnd _535_ _535__bF$buf3 BUFX4
XBUFX4_69 vdd gnd _535_ _535__bF$buf2 BUFX4
XBUFX4_70 vdd gnd _535_ _535__bF$buf1 BUFX4
XBUFX4_71 vdd gnd _535_ _535__bF$buf0 BUFX4
XBUFX4_72 vdd gnd _1034_ _1034__bF$buf3 BUFX4
XBUFX4_73 vdd gnd _1034_ _1034__bF$buf2 BUFX4
XBUFX2_7 vdd gnd _1034_ _1034__bF$buf1 BUFX2
XBUFX2_8 vdd gnd _1034_ _1034__bF$buf0 BUFX2
XBUFX4_74 vdd gnd _1057_ _1057__bF$buf3 BUFX4
XBUFX4_75 vdd gnd _1057_ _1057__bF$buf2 BUFX4
XBUFX4_76 vdd gnd _1057_ _1057__bF$buf1 BUFX4
XBUFX4_77 vdd gnd _1057_ _1057__bF$buf0 BUFX4
XBUFX4_78 vdd gnd _1022_ _1022__bF$buf3 BUFX4
XBUFX4_79 vdd gnd _1022_ _1022__bF$buf2 BUFX4
XBUFX4_80 vdd gnd _1022_ _1022__bF$buf1 BUFX4
XBUFX4_81 vdd gnd _1022_ _1022__bF$buf0 BUFX4
XBUFX4_82 vdd gnd _937_ _937__bF$buf4 BUFX4
XBUFX4_83 vdd gnd _937_ _937__bF$buf3 BUFX4
XBUFX4_84 vdd gnd _937_ _937__bF$buf2 BUFX4
XBUFX4_85 vdd gnd _937_ _937__bF$buf1 BUFX4
XBUFX4_86 vdd gnd _937_ _937__bF$buf0 BUFX4
XBUFX4_87 vdd gnd _962_ _962__bF$buf4 BUFX4
XBUFX4_88 vdd gnd _962_ _962__bF$buf3 BUFX4
XBUFX4_89 vdd gnd _962_ _962__bF$buf2 BUFX4
XBUFX4_90 vdd gnd _962_ _962__bF$buf1 BUFX4
XBUFX4_91 vdd gnd _962_ _962__bF$buf0 BUFX4
XINVX8_1 vdd gnd RDY_bF$buf8 _881_ INVX8
XNOR2X1_1 vdd state<4> gnd _882_ state<5> NOR2X1
XNOR2X1_2 vdd state<1> gnd _883_ state<0> NOR2X1
XAND2X2_1 vdd gnd state<2> state<3> _884_ AND2X2
XNAND3X1_1 _883_ vdd gnd _882__bF$buf5 _884_ _885_ NAND3X1
XNOR2X1_3 vdd _885__bF$buf4 gnd _886_ _881__bF$buf7 NOR2X1
XINVX4_1 vdd gnd _887_ IRHOLD_valid INVX4
XINVX1_1 DIHOLD<4> _889_ vdd gnd INVX1
XNAND2X1_1 vdd _890_ gnd RDY_bF$buf7 DI<4> NAND2X1
XOAI21X1_1 gnd vdd RDY_bF$buf6 _889_ DIMUX<4> _890_ OAI21X1
XINVX4_2 vdd gnd _891_ DIMUX<4> INVX4
XINVX1_2 I _892_ vdd gnd INVX1
XINVX1_3 IRQ _893_ vdd gnd INVX1
XINVX2_1 vdd gnd _894_ NMI_edge INVX2
XNAND2X1_2 vdd _895_ gnd _893_ _894_ NAND2X1
XOAI21X1_2 gnd vdd _892_ NMI_edge _896_ _895_ OAI21X1
XOAI21X1_3 gnd vdd _887_ IRHOLD<4> _897_ _896__bF$buf3 OAI21X1
XAOI21X1_1 gnd vdd _887_ _891_ _898_ _897_ AOI21X1
XINVX1_4 IRHOLD<3> _899_ vdd gnd INVX1
XINVX1_5 DIHOLD<3> _900_ vdd gnd INVX1
XNAND2X1_3 vdd _901_ gnd RDY_bF$buf5 DI<3> NAND2X1
XOAI21X1_4 gnd vdd RDY_bF$buf4 _900_ DIMUX<3> _901_ OAI21X1
XNAND2X1_4 vdd _902_ gnd _887_ DIMUX<3> NAND2X1
XOAI21X1_5 gnd vdd _887_ _899_ _903_ _902_ OAI21X1
XNAND2X1_5 vdd _904_ gnd _896__bF$buf2 _903_ NAND2X1
XMUX2X1_1 RDY_bF$buf3 vdd gnd _905_ DI<2> DIHOLD<2> MUX2X1
XNAND2X1_6 vdd _906_ gnd IRHOLD_valid IRHOLD<2> NAND2X1
XOAI21X1_6 gnd vdd IRHOLD_valid _905_ _907_ _906_ OAI21X1
XAND2X2_2 vdd gnd _907_ _896__bF$buf1 _908_ AND2X2
XNOR2X1_4 vdd _904_ gnd _909_ _908_ NOR2X1
XOAI21X1_7 gnd vdd I _893_ _910_ _894_ OAI21X1
XINVX1_6 DIHOLD<1> _911_ vdd gnd INVX1
XNAND2X1_7 vdd _912_ gnd RDY_bF$buf2 DI<1> NAND2X1
XOAI21X1_8 gnd vdd RDY_bF$buf1 _911_ DIMUX<1> _912_ OAI21X1
XMUX2X1_2 _887_ vdd gnd _913_ DIMUX<1> IRHOLD<1> MUX2X1
XOR2X2_1 _914_ _910__bF$buf4 vdd gnd _913_ OR2X2
XINVX1_7 DIHOLD<0> _915_ vdd gnd INVX1
XNAND2X1_8 vdd _916_ gnd RDY_bF$buf0 DI<0> NAND2X1
XOAI21X1_9 gnd vdd RDY_bF$buf8 _915_ DIMUX<0> _916_ OAI21X1
XMUX2X1_3 _887_ vdd gnd _917_ DIMUX<0> IRHOLD<0> MUX2X1
XNOR2X1_5 vdd _917_ gnd _918_ _910__bF$buf3 NOR2X1
XAND2X2_3 vdd gnd _914_ _918_ _919_ AND2X2
XNAND2X1_9 vdd _920_ gnd _909_ _919_ NAND2X1
XOAI21X1_10 gnd vdd _907_ _903_ _921_ _896__bF$buf0 OAI21X1
XINVX1_8 IRHOLD<4> _922_ vdd gnd INVX1
XAOI21X1_2 gnd vdd IRHOLD_valid _922_ _923_ _910__bF$buf2 AOI21X1
XOAI21X1_11 gnd vdd IRHOLD_valid DIMUX<4> _924_ _923_ OAI21X1
XMUX2X1_4 RDY_bF$buf7 vdd gnd _925_ DI<7> DIHOLD<7> MUX2X1
XNAND2X1_10 vdd _926_ gnd IRHOLD_valid IRHOLD<7> NAND2X1
XOAI21X1_12 gnd vdd IRHOLD_valid _925_ _927_ _926_ OAI21X1
XAND2X2_4 vdd gnd _927_ _896__bF$buf3 _928_ AND2X2
XNAND2X1_11 vdd _929_ gnd _924_ _928_ NAND2X1
XNOR2X1_6 vdd _929_ gnd _930_ _918_ NOR2X1
XNAND2X1_12 vdd _931_ gnd _921_ _930_ NAND2X1
XOAI21X1_13 gnd vdd _898_ _920_ _932_ _931_ OAI21X1
XINVX2_2 vdd gnd _933_ state<0> INVX2
XNOR2X1_7 vdd _933_ gnd _934_ state<1> NOR2X1
XNOR2X1_8 vdd state<3> gnd _935_ state<2> NOR2X1
XNAND2X1_13 vdd _936_ gnd _935_ _934_ NAND2X1
XINVX8_2 vdd gnd _882__bF$buf4 _937_ INVX8
XINVX1_9 state<3> _938_ vdd gnd INVX1
XNAND2X1_14 vdd _939_ gnd state<2> _938_ NAND2X1
XOR2X2_2 _940_ state<1> vdd gnd state<0> OR2X2
XNOR2X1_9 vdd _939_ gnd _941_ _940_ NOR2X1
XNAND2X1_15 vdd _942_ gnd _882__bF$buf3 _941_ NAND2X1
XOAI21X1_14 gnd vdd _936__bF$buf3 _937__bF$buf4 _943_ _942_ OAI21X1
XAND2X2_5 vdd gnd state<5> state<4> _944_ AND2X2
XINVX2_3 vdd gnd _945_ _944_ INVX2
XINVX1_10 state<5> _946_ vdd gnd INVX1
XNOR2X1_10 vdd _946_ gnd _947_ state<4> NOR2X1
XNAND2X1_16 vdd _948_ gnd state<2> state<3> NAND2X1
XNAND2X1_17 vdd _949_ gnd state<0> state<1> NAND2X1
XNOR2X1_11 vdd _949_ gnd _950_ _948_ NOR2X1
XNAND2X1_18 vdd _951_ gnd _947_ _950_ NAND2X1
XOAI21X1_15 gnd vdd _945_ _936__bF$buf2 _952_ _951_ OAI21X1
XNOR2X1_12 vdd _943_ gnd _953_ _952_ NOR2X1
XINVX1_11 _936__bF$buf1 _954_ vdd gnd INVX1
XINVX2_4 vdd gnd _955_ state<4> INVX2
XNOR2X1_13 vdd _955_ gnd _956_ state<5> NOR2X1
XNAND2X1_19 vdd _957_ gnd state<5> _955_ NAND2X1
XNAND3X1_2 state<1> vdd gnd _933_ _884_ _958_ NAND3X1
XNOR2X1_14 vdd _958_ gnd _959_ _957__bF$buf4 NOR2X1
XAOI21X1_3 gnd vdd _954_ _956_ _960_ _959_ AOI21X1
XNOR3X1_1 vdd gnd _933_ _948_ state<1> _961_ NOR3X1
XNAND2X1_20 vdd _962_ gnd state<4> _946_ NAND2X1
XNAND2X1_21 vdd _963_ gnd _957__bF$buf3 _962__bF$buf4 NAND2X1
XINVX2_5 vdd gnd _964_ state<2> INVX2
XNOR2X1_15 vdd _964_ gnd _965_ state<3> NOR2X1
XNAND2X1_22 vdd _966_ gnd _934_ _965_ NAND2X1
XNOR2X1_16 vdd _966_ gnd _967_ _962__bF$buf3 NOR2X1
XAOI21X1_4 gnd vdd _961_ _963_ _968_ _967_ AOI21X1
XNAND2X1_23 vdd _969_ gnd _960_ _968_ NAND2X1
XNAND3X1_3 _953_ vdd gnd RDY_bF$buf6 _969_ _970_ NAND3X1
XNAND2X1_24 vdd _971_ gnd _884_ _934_ NAND2X1
XNOR3X1_2 vdd gnd state<1> _948_ state<0> _972_ NOR3X1
XNAND2X1_25 vdd _973_ gnd RDY_bF$buf5 _972_ NAND2X1
XOAI21X1_16 gnd vdd RDY_bF$buf4 _971_ _974_ _973_ OAI21X1
XAND2X2_6 vdd gnd _974_ _947_ _975_ AND2X2
XNAND2X1_26 vdd _976_ gnd _956_ _941_ NAND2X1
XNOR2X1_17 vdd _971_ gnd _977_ _937__bF$buf3 NOR2X1
XINVX2_6 vdd gnd _978_ _977_ INVX2
XNOR2X1_18 vdd store gnd _979_ ALU.CO NOR2X1
XNAND2X1_27 vdd _980_ gnd RDY_bF$buf3 _979_ NAND2X1
XOAI22X1_1 gnd vdd _978_ RDY_bF$buf2 _976_ _980_ _981_ OAI22X1
XAND2X2_7 vdd gnd state<0> state<1> _982_ AND2X2
XNAND2X1_28 vdd _983_ gnd _935_ _982_ NAND2X1
XINVX1_12 _983_ _984_ vdd gnd INVX1
XNAND2X1_29 vdd _985_ gnd _882__bF$buf2 _984_ NAND2X1
XINVX2_7 vdd gnd _986_ write_back INVX2
XNAND3X1_4 RDY_bF$buf1 vdd gnd _986_ _979_ _987_ NAND3X1
XNOR2X1_19 vdd _985_ gnd _988_ _987_ NOR2X1
XNOR3X1_3 vdd gnd _975_ _981_ _988_ _989_ NOR3X1
XOR2X2_3 _990_ _952_ vdd gnd _943_ OR2X2
XNAND3X1_5 RDY_bF$buf0 vdd gnd _986_ _990_ _991_ NAND3X1
XNAND3X1_6 _991_ vdd gnd _970_ _989_ _992_ NAND3X1
XAOI21X1_5 gnd vdd _932_ _886__bF$buf4 _993_ _992_ AOI21X1
XNOR2X1_20 vdd _913_ gnd _994_ _910__bF$buf1 NOR2X1
XNOR2X1_21 vdd _918_ gnd _995_ _994_ NOR2X1
XNAND2X1_30 vdd _996_ gnd _921_ _995_ NAND2X1
XNAND2X1_31 vdd _997_ gnd _887_ DIMUX<4> NAND2X1
XOAI21X1_17 gnd vdd _887_ _922_ _998_ _997_ OAI21X1
XOAI21X1_18 gnd vdd _927_ _998_ _999_ _896__bF$buf2 OAI21X1
XINVX1_13 DIHOLD<5> _1000_ vdd gnd INVX1
XNAND2X1_32 vdd _1001_ gnd RDY_bF$buf8 DI<5> NAND2X1
XOAI21X1_19 gnd vdd RDY_bF$buf7 _1000_ DIMUX<5> _1001_ OAI21X1
XMUX2X1_5 _887_ vdd gnd _1002_ DIMUX<5> IRHOLD<5> MUX2X1
XNOR2X1_22 vdd _1002_ gnd _1003_ _910__bF$buf0 NOR2X1
XINVX1_14 DIHOLD<6> _1004_ vdd gnd INVX1
XNAND2X1_33 vdd _1005_ gnd RDY_bF$buf6 DI<6> NAND2X1
XOAI21X1_20 gnd vdd RDY_bF$buf5 _1004_ DIMUX<6> _1005_ OAI21X1
XINVX1_15 IRHOLD<6> _1006_ vdd gnd INVX1
XAOI21X1_6 gnd vdd IRHOLD_valid _1006_ _1007_ _910__bF$buf4 AOI21X1
XOAI21X1_21 gnd vdd IRHOLD_valid DIMUX<6> _1008_ _1007_ OAI21X1
XNOR2X1_23 vdd _1003_ gnd _1009_ _1008_ NOR2X1
XNAND2X1_34 vdd _1010_ gnd _999_ _1009_ NAND2X1
XNOR2X1_24 vdd _996_ gnd _1011_ _1010_ NOR2X1
XNAND3X1_7 _947_ vdd gnd _934_ _965_ _1012_ NAND3X1
XINVX1_16 _1012_ _1013_ vdd gnd INVX1
XAOI22X1_1 gnd vdd _886__bF$buf3 _1011_ _1014_ _881__bF$buf6 _1013_ AOI22X1
XNAND2X1_35 vdd _1015_ gnd _881__bF$buf5 _967_ NAND2X1
XOAI21X1_22 gnd vdd ALU.CO store _1016_ RDY_bF$buf4 OAI21X1
XOAI21X1_23 gnd vdd _976_ _1016_ _1017_ _1015_ OAI21X1
XINVX1_17 _1017_ _1018_ vdd gnd INVX1
XNAND3X1_8 _1018_ vdd gnd _1014_ _993_ _1019_ NAND3X1
XINVX1_18 _951_ _1020_ vdd gnd INVX1
XOAI21X1_24 gnd vdd _998_ _903_ _1021_ _896__bF$buf1 OAI21X1
XINVX8_3 vdd gnd _886__bF$buf2 _1022_ INVX8
XNAND2X1_36 vdd _1023_ gnd _896__bF$buf0 _907_ NAND2X1
XNOR2X1_25 vdd _1022__bF$buf3 gnd _1024_ _1023_ NOR2X1
XAOI22X1_2 gnd vdd _1021_ _1024_ _1025_ _881__bF$buf4 _1020_ AOI22X1
XOAI21X1_25 gnd vdd _937__bF$buf2 _958_ _1026_ RDY_bF$buf3 OAI21X1
XNAND2X1_37 vdd _1027_ gnd _884_ _982_ NAND2X1
XNOR2X1_26 vdd _1027_ gnd _1028_ _937__bF$buf1 NOR2X1
XOAI21X1_26 gnd vdd RDY_bF$buf2 _1028_ _1029_ _1026_ OAI21X1
XNAND2X1_38 vdd _1030_ gnd _1029_ _1025_ NAND2X1
XNAND2X1_39 vdd _1031_ gnd _982_ _965_ NAND2X1
XNOR2X1_27 vdd _1031_ gnd _1032_ _962__bF$buf2 NOR2X1
XNAND2X1_40 vdd _1033_ gnd state<1> _933_ NAND2X1
XNOR2X1_28 vdd _1033_ gnd _1034_ _939_ NOR2X1
XINVX1_19 _1034__bF$buf3 _1035_ vdd gnd INVX1
XOAI21X1_27 gnd vdd _962__bF$buf1 _1035_ _1036_ RDY_bF$buf1 OAI21X1
XOAI21X1_28 gnd vdd RDY_bF$buf0 _1032_ _1037_ _1036_ OAI21X1
XNOR2X1_29 vdd _1031_ gnd _1038_ _957__bF$buf2 NOR2X1
XOAI21X1_29 gnd vdd _957__bF$buf1 _1035_ _1039_ RDY_bF$buf8 OAI21X1
XOAI21X1_30 gnd vdd RDY_bF$buf7 _1038_ _1040_ _1039_ OAI21X1
XNAND2X1_41 vdd _1041_ gnd _1037_ _1040_ NAND2X1
XNOR2X1_30 vdd _1030_ gnd _1042_ _1041_ NOR2X1
XNOR3X1_4 vdd gnd _938_ _949_ state<2> _1043_ NOR3X1
XNAND2X1_42 vdd _1044_ gnd _947_ _1043_ NAND2X1
XNAND2X1_43 vdd _1045_ gnd state<3> _964_ NAND2X1
XNOR2X1_31 vdd _1045_ gnd _1046_ _1033_ NOR2X1
XNAND2X1_44 vdd _1047_ gnd _947_ _1046_ NAND2X1
XINVX1_20 _1047_ _1048_ vdd gnd INVX1
XNAND2X1_45 vdd _1049_ gnd RDY_bF$buf6 _1048_ NAND2X1
XOAI21X1_31 gnd vdd RDY_bF$buf5 _1044_ _1050_ _1049_ OAI21X1
XNAND3X1_9 state<3> vdd gnd _964_ _982_ _1051_ NAND3X1
XNOR2X1_32 vdd _1051_ gnd _1052_ _937__bF$buf0 NOR2X1
XINVX1_21 _1052_ _1053_ vdd gnd INVX1
XINVX1_22 state<1> _1054_ vdd gnd INVX1
XNOR2X1_33 vdd _1054_ gnd _1055_ state<0> NOR2X1
XNOR2X1_34 vdd _938_ gnd _1056_ state<2> NOR2X1
XNAND3X1_10 _1055_ vdd gnd _882__bF$buf1 _1056_ _1057_ NAND3X1
XMUX2X1_6 _881__bF$buf3 vdd gnd _1058_ _1053_ _1057__bF$buf3 MUX2X1
XNOR2X1_35 vdd _1050_ gnd _1059_ _1058_ NOR2X1
XOAI21X1_32 gnd vdd _962__bF$buf0 _1051_ _1060_ _881__bF$buf2 OAI21X1
XNAND2X1_46 vdd _1061_ gnd _1055_ _1056_ NAND2X1
XNOR2X1_36 vdd _1061_ gnd _1062_ _962__bF$buf4 NOR2X1
XOAI21X1_33 gnd vdd _881__bF$buf1 _1062_ _1063_ _1060_ OAI21X1
XNAND3X1_11 _965_ vdd gnd _882__bF$buf0 _1055_ _1064_ NAND3X1
XXOR2X1_1 _1065_ vdd backwards ALU.CO gnd XOR2X1
XINVX1_23 _1065_ _1066_ vdd gnd INVX1
XOAI21X1_34 gnd vdd _1064_ _1066_ _1067_ RDY_bF$buf4 OAI21X1
XNOR2X1_37 vdd _1031_ gnd _1068_ _937__bF$buf4 NOR2X1
XOAI21X1_35 gnd vdd RDY_bF$buf3 _1068_ _1069_ _1067_ OAI21X1
XAND2X2_8 vdd gnd _1069_ _1063_ _1070_ AND2X2
XAND2X2_9 vdd gnd _1059_ _1070_ _1071_ AND2X2
XNOR2X1_38 vdd _881__bF$buf0 gnd _1072_ _986_ NOR2X1
XNOR2X1_39 vdd _983_ gnd _1073_ _957__bF$buf0 NOR2X1
XAOI22X1_3 gnd vdd _1072_ _990_ _1074_ _881__bF$buf7 _1073_ AOI22X1
XNOR2X1_40 vdd _983_ gnd _1075_ _962__bF$buf3 NOR2X1
XNAND3X1_12 state<1> vdd gnd _933_ _935_ _1076_ NAND3X1
XOAI21X1_36 gnd vdd _962__bF$buf2 _1076_ _1077_ RDY_bF$buf2 OAI21X1
XOAI21X1_37 gnd vdd RDY_bF$buf1 _1075_ _1078_ _1077_ OAI21X1
XNAND2X1_47 vdd _1079_ gnd _1078_ _1074_ NAND2X1
XNAND3X1_13 _956_ vdd gnd _884_ _1055_ _1080_ NAND3X1
XINVX1_24 _1080_ _1081_ vdd gnd INVX1
XOAI21X1_38 gnd vdd _962__bF$buf1 _1027_ _1082_ _881__bF$buf6 OAI21X1
XOAI21X1_39 gnd vdd _881__bF$buf5 _1081_ _1083_ _1082_ OAI21X1
XOAI21X1_40 gnd vdd _937__bF$buf3 _983_ _1084_ _881__bF$buf4 OAI21X1
XNOR2X1_41 vdd _1076_ gnd _1085_ _937__bF$buf2 NOR2X1
XOAI21X1_41 gnd vdd _881__bF$buf3 _1085_ _1086_ _1084_ OAI21X1
XNAND2X1_48 vdd _1087_ gnd _1086_ _1083_ NAND2X1
XNOR2X1_42 vdd _1079_ gnd _1088_ _1087_ NOR2X1
XNAND3X1_14 _1071_ vdd gnd _1042_ _1088_ _1089_ NAND3X1
XNOR2X1_43 vdd _936__bF$buf0 gnd _1090_ _957__bF$buf4 NOR2X1
XNAND2X1_49 vdd _1091_ gnd _881__bF$buf2 _1090_ NAND2X1
XNAND2X1_50 vdd _1092_ gnd _896__bF$buf3 _927_ NAND2X1
XNAND2X1_51 vdd _1093_ gnd _1092_ _924_ NAND2X1
XNOR2X1_44 vdd _1093_ gnd _1094_ _1003_ NOR2X1
XINVX4_3 vdd gnd _1095_ DIMUX<3> INVX4
XOAI21X1_42 gnd vdd _887_ IRHOLD<3> _1096_ _896__bF$buf2 OAI21X1
XAOI21X1_7 gnd vdd _887_ _1095_ _1097_ _1096_ AOI21X1
XNAND2X1_52 vdd _1098_ gnd _1023_ _1097_ NAND2X1
XOAI21X1_43 gnd vdd _910__bF$buf3 _917_ _1099_ _914_ OAI21X1
XNOR2X1_45 vdd _1099_ gnd _1100_ _1098_ NOR2X1
XNAND3X1_15 _1094_ vdd gnd _886__bF$buf1 _1100_ _1101_ NAND3X1
XAND2X2_10 vdd gnd _1101_ _1091_ _1102_ AND2X2
XNAND3X1_16 _934_ vdd gnd _882__bF$buf5 _965_ _1103_ NAND3X1
XINVX1_25 _1103_ _1104_ vdd gnd INVX1
XNOR2X1_46 vdd _996_ gnd _1105_ _924_ NOR2X1
XAOI22X1_4 gnd vdd _886__bF$buf0 _1105_ _1106_ _881__bF$buf1 _1104_ AOI22X1
XNAND3X1_17 _883_ vdd gnd _935_ _944_ _1107_ NAND3X1
XINVX1_26 _1107_ _1108_ vdd gnd INVX1
XOAI21X1_44 gnd vdd _945_ _936__bF$buf3 _1109_ _881__bF$buf0 OAI21X1
XOAI21X1_45 gnd vdd _881__bF$buf7 _1108_ _1110_ _1109_ OAI21X1
XNAND2X1_53 vdd _1111_ gnd _935_ _883_ NAND2X1
XNOR2X1_47 vdd _1111_ gnd _1112_ _962__bF$buf0 NOR2X1
XOAI21X1_46 gnd vdd _962__bF$buf4 _936__bF$buf2 _1113_ _881__bF$buf6 OAI21X1
XOAI21X1_47 gnd vdd _881__bF$buf5 _1112_ _1114_ _1113_ OAI21X1
XNAND2X1_54 vdd _1115_ gnd _1114_ _1110_ NAND2X1
XINVX1_27 _1115_ _1116_ vdd gnd INVX1
XNAND2X1_55 vdd _1117_ gnd _934_ _1056_ NAND2X1
XOAI21X1_48 gnd vdd _957__bF$buf3 _1117_ _1118_ _881__bF$buf4 OAI21X1
XNAND3X1_18 state<3> vdd gnd _964_ _883_ _1119_ NAND3X1
XNOR2X1_48 vdd _1119_ gnd _1120_ _957__bF$buf2 NOR2X1
XOAI21X1_49 gnd vdd _881__bF$buf3 _1120_ _1121_ _1118_ OAI21X1
XNOR2X1_49 vdd _1117_ gnd _1122_ _937__bF$buf1 NOR2X1
XNOR2X1_50 vdd _1122_ gnd _1123_ RDY_bF$buf0 NOR2X1
XNOR2X1_51 vdd _1045_ gnd _1124_ _940_ NOR2X1
XAOI21X1_8 gnd vdd _1124_ _882__bF$buf4 _1125_ _881__bF$buf2 AOI21X1
XOAI21X1_50 gnd vdd _1125_ _1123_ _1126_ _1121_ OAI21X1
XNAND3X1_19 _882__bF$buf3 vdd gnd _935_ _883_ _1127_ NAND3X1
XINVX1_28 _1127_ _1128_ vdd gnd INVX1
XOAI21X1_51 gnd vdd _937__bF$buf0 _936__bF$buf1 _1129_ _881__bF$buf1 OAI21X1
XOAI21X1_52 gnd vdd _881__bF$buf0 _1128_ _1130_ _1129_ OAI21X1
XOAI21X1_53 gnd vdd _962__bF$buf3 _1117_ _1131_ _881__bF$buf7 OAI21X1
XNOR2X1_52 vdd _1119_ gnd _1132_ _962__bF$buf2 NOR2X1
XOAI21X1_54 gnd vdd _881__bF$buf6 _1132_ _1133_ _1131_ OAI21X1
XNAND2X1_56 vdd _1134_ gnd _956_ _974_ NAND2X1
XNAND3X1_20 _1133_ vdd gnd _1130_ _1134_ _1135_ NAND3X1
XNOR2X1_53 vdd _1126_ gnd _1136_ _1135_ NOR2X1
XAND2X2_11 vdd gnd _1136_ _1116_ _1137_ AND2X2
XNAND3X1_21 _1137_ vdd gnd _1106_ _1102_ _1138_ NAND3X1
XNOR3X1_5 vdd gnd _1089_ _1019_ _1138_ _1139_ NOR3X1
XINVX1_29 _1139_ _876_ vdd gnd INVX1
XINVX1_30 _1089_ _1140_ vdd gnd INVX1
XNAND2X1_57 vdd _1141_ gnd _924_ _1003_ NAND2X1
XNOR2X1_54 vdd _1141_ gnd _1142_ _928_ NOR2X1
XNAND3X1_22 _1142_ vdd gnd _886__bF$buf4 _1100_ _1143_ NAND3X1
XNAND2X1_58 vdd _1144_ gnd _881__bF$buf5 _1081_ NAND2X1
XOAI21X1_55 gnd vdd _957__bF$buf1 _958_ _1145_ _881__bF$buf4 OAI21X1
XOAI21X1_56 gnd vdd _881__bF$buf3 _1073_ _1146_ _1145_ OAI21X1
XNAND3X1_23 _1146_ vdd gnd _1144_ _1143_ _1147_ NAND3X1
XNOR2X1_55 vdd _918_ gnd _1148_ _1023_ NOR2X1
XNAND3X1_24 _914_ vdd gnd _1097_ _1148_ _1149_ NAND3X1
XNOR2X1_56 vdd _1149_ gnd _1150_ _1010_ NOR2X1
XNAND2X1_59 vdd _1151_ gnd _956_ _1034__bF$buf2 NAND2X1
XNOR2X1_57 vdd _1117_ gnd _1152_ _962__bF$buf1 NOR2X1
XOAI21X1_57 gnd vdd _1052_ _1152_ _1153_ RDY_bF$buf8 OAI21X1
XOAI21X1_58 gnd vdd RDY_bF$buf7 _1151_ _1154_ _1153_ OAI21X1
XAOI21X1_9 gnd vdd _1150_ _886__bF$buf3 _1155_ _1154_ AOI21X1
XNOR2X1_58 vdd _958_ gnd _1156_ _937__bF$buf4 NOR2X1
XNAND2X1_60 vdd _1157_ gnd _881__bF$buf2 _1156_ NAND2X1
XNAND2X1_61 vdd _1158_ gnd _921_ _919_ NAND2X1
XNOR2X1_59 vdd _1158_ gnd _1159_ _898_ NOR2X1
XNAND2X1_62 vdd _1160_ gnd _886__bF$buf2 _1159_ NAND2X1
XNAND3X1_25 _1160_ vdd gnd _1157_ _1155_ _1161_ NAND3X1
XOR2X2_4 _1162_ _910__bF$buf2 vdd gnd _1002_ OR2X2
XNOR2X1_60 vdd _1162_ gnd _1163_ _898_ NOR2X1
XNAND2X1_63 vdd _1164_ gnd _1092_ _1008_ NAND2X1
XINVX1_31 _1164_ _1165_ vdd gnd INVX1
XNAND2X1_64 vdd _1166_ gnd _1165_ _1163_ NAND2X1
XNOR2X1_61 vdd _1166_ gnd _1167_ _996_ NOR2X1
XAOI22X1_5 gnd vdd _886__bF$buf1 _1167_ _1168_ _881__bF$buf1 _1062_ AOI22X1
XNOR2X1_62 vdd _928_ gnd _1169_ _1008_ NOR2X1
XNAND2X1_65 vdd _1170_ gnd _1169_ _1163_ NAND2X1
XNOR2X1_63 vdd _1170_ gnd _1171_ _996_ NOR2X1
XAOI22X1_6 gnd vdd _886__bF$buf0 _1171_ _1172_ _881__bF$buf0 _1048_ AOI22X1
XNOR2X1_64 vdd _1103_ gnd _1173_ _881__bF$buf7 NOR2X1
XINVX1_32 Z _1174_ vdd gnd INVX1
XNAND2X1_66 vdd _1175_ gnd cond_code<1> _1174_ NAND2X1
XOAI21X1_59 gnd vdd cond_code<1> C _1176_ _1175_ OAI21X1
XINVX1_33 V _1177_ vdd gnd INVX1
XNAND2X1_67 vdd _1178_ gnd cond_code<1> _1177_ NAND2X1
XOAI21X1_60 gnd vdd N cond_code<1> _1179_ _1178_ OAI21X1
XMUX2X1_7 cond_code<2> vdd gnd _1180_ _1176_ _1179_ MUX2X1
XXNOR2X1_1 _1180_ cond_code<0> gnd vdd _1181_ XNOR2X1
XOAI21X1_61 gnd vdd _957__bF$buf0 _1035_ _1182_ _881__bF$buf6 OAI21X1
XOAI21X1_62 gnd vdd _881__bF$buf5 _1013_ _1183_ _1182_ OAI21X1
XOAI21X1_63 gnd vdd RDY_bF$buf6 _1064_ _1184_ _1183_ OAI21X1
XAOI21X1_10 gnd vdd _1181_ _1173_ _1185_ _1184_ AOI21X1
XNAND3X1_26 _1168_ vdd gnd _1185_ _1172_ _1186_ NAND3X1
XNOR3X1_6 vdd gnd _1161_ _1186_ _1147_ _1187_ NOR3X1
XNOR2X1_65 vdd _1076_ gnd _1188_ _962__bF$buf0 NOR2X1
XNOR2X1_66 vdd _1158_ gnd _1189_ _924_ NOR2X1
XAOI22X1_7 gnd vdd _886__bF$buf4 _1189_ _1190_ _881__bF$buf4 _1188_ AOI22X1
XNAND2X1_68 vdd _1191_ gnd state<0> _1054_ NAND2X1
XNOR2X1_67 vdd _1045_ gnd _1192_ _1191_ NOR2X1
XNAND2X1_69 vdd _1193_ gnd _882__bF$buf2 _1192_ NAND2X1
XINVX2_8 vdd gnd _1194_ _1057__bF$buf2 INVX2
XNAND2X1_70 vdd _1195_ gnd _881__bF$buf3 _1194_ NAND2X1
XOAI21X1_64 gnd vdd _881__bF$buf2 _1193_ _1196_ _1195_ OAI21X1
XINVX1_34 _1085_ _1197_ vdd gnd INVX1
XNOR2X1_68 vdd _1076_ gnd _1198_ _957__bF$buf4 NOR2X1
XOAI21X1_65 gnd vdd _957__bF$buf3 _936__bF$buf0 _1199_ RDY_bF$buf5 OAI21X1
XOAI21X1_66 gnd vdd RDY_bF$buf4 _1198_ _1200_ _1199_ OAI21X1
XOAI21X1_67 gnd vdd RDY_bF$buf3 _1197_ _1201_ _1200_ OAI21X1
XOR2X2_5 _1202_ _1196_ vdd gnd _1201_ OR2X2
XOAI21X1_68 gnd vdd _910__bF$buf1 _913_ _1203_ _918_ OAI21X1
XNAND2X1_71 vdd _1204_ gnd _908_ _1097_ NAND2X1
XOAI21X1_69 gnd vdd _1203_ _1098_ _1205_ _1204_ OAI21X1
XNOR2X1_69 vdd _1022__bF$buf2 gnd _1206_ _924_ NOR2X1
XAOI21X1_11 gnd vdd _1205_ _1206_ _1207_ _1202_ AOI21X1
XAND2X2_12 vdd gnd _1190_ _1207_ _1208_ AND2X2
XNAND3X1_27 _1208_ vdd gnd _1140_ _1187_ _877_ NAND3X1
XNAND2X1_72 vdd _1209_ gnd _883_ _965_ NAND2X1
XOAI21X1_70 gnd vdd _962__bF$buf4 _1209_ _1210_ _881__bF$buf1 OAI21X1
XOAI21X1_71 gnd vdd _881__bF$buf0 _1075_ _1211_ _1210_ OAI21X1
XNOR2X1_70 vdd _990_ gnd _1212_ _881__bF$buf7 NOR2X1
XOR2X2_6 _1213_ state<3> vdd gnd state<2> OR2X2
XNOR2X1_71 vdd _1033_ gnd _1215_ _1213_ NOR2X1
XOAI21X1_72 gnd vdd _1215_ _1192_ _1216_ _947_ OAI21X1
XOAI21X1_73 gnd vdd state<5> _1031_ _1217_ _1216_ OAI21X1
XNOR2X1_72 vdd _1111_ gnd _1218_ _957__bF$buf2 NOR2X1
XNOR2X1_73 vdd _1209_ gnd _1219_ _957__bF$buf1 NOR2X1
XNOR2X1_74 vdd _1219_ gnd _1220_ _1218_ NOR2X1
XOAI21X1_74 gnd vdd _937__bF$buf3 _971_ _1221_ _1220_ OAI21X1
XOAI21X1_75 gnd vdd _1217_ _1221_ _1222_ _1212_ OAI21X1
XINVX1_35 _1181_ _1223_ vdd gnd INVX1
XINVX8_4 vdd gnd _1064_ _1224_ INVX8
XNAND3X1_28 _1066_ vdd gnd RDY_bF$buf2 _1224_ _1225_ NAND3X1
XOAI21X1_76 gnd vdd RDY_bF$buf1 _885__bF$buf3 _1226_ _1225_ OAI21X1
XAOI21X1_12 gnd vdd _1223_ _1173_ _1227_ _1226_ AOI21X1
XAND2X2_13 vdd gnd _1222_ _1227_ _1228_ AND2X2
XAOI21X1_13 gnd vdd _1010_ _924_ _1229_ _996_ AOI21X1
XNAND2X1_73 vdd _1230_ gnd _1094_ _1100_ NAND2X1
XOAI21X1_77 gnd vdd _924_ _1158_ _1231_ _1230_ OAI21X1
XNOR2X1_75 vdd _1231_ gnd _1232_ _1229_ NOR2X1
XNAND2X1_74 vdd _1233_ gnd _1142_ _1100_ NAND2X1
XOAI21X1_78 gnd vdd _996_ _1170_ _1234_ _1233_ OAI21X1
XNAND2X1_75 vdd _1235_ gnd _1023_ _904_ NAND2X1
XNOR2X1_76 vdd _1235_ gnd _1236_ _1203_ NOR2X1
XNAND2X1_76 vdd _1237_ gnd _924_ _1236_ NAND2X1
XOAI21X1_79 gnd vdd _1149_ _1170_ _1238_ _1237_ OAI21X1
XNOR2X1_77 vdd _1234_ gnd _1239_ _1238_ NOR2X1
XNOR2X1_78 vdd _1098_ gnd _1240_ _1203_ NOR2X1
XAOI22X1_8 gnd vdd _924_ _1240_ _1241_ _921_ _930_ AOI22X1
XOAI21X1_80 gnd vdd _1023_ _1097_ _1242_ _886__bF$buf3 OAI21X1
XINVX1_36 _1242_ _1243_ vdd gnd INVX1
XNAND2X1_77 vdd _1244_ gnd _1243_ _1241_ NAND2X1
XAOI21X1_14 gnd vdd _898_ _1205_ _1245_ _1244_ AOI21X1
XNAND3X1_29 _1239_ vdd gnd _1232_ _1245_ _1246_ NAND3X1
XNOR2X1_79 vdd _1099_ gnd _1247_ _1204_ NOR2X1
XOAI21X1_81 gnd vdd _1164_ _1141_ _1248_ _929_ OAI21X1
XOAI21X1_82 gnd vdd _910__bF$buf0 _917_ _1249_ _994_ OAI21X1
XNAND2X1_78 vdd _1250_ gnd _1203_ _1249_ NAND2X1
XNOR2X1_80 vdd _1204_ gnd _1251_ _898_ NOR2X1
XAND2X2_14 vdd gnd _1251_ _1250_ _1252_ AND2X2
XAOI21X1_15 gnd vdd _1247_ _1248_ _1253_ _1252_ AOI21X1
XNOR2X1_81 vdd _1098_ gnd _1254_ _1249_ NOR2X1
XAOI21X1_16 gnd vdd _1100_ _1093_ _1255_ _1254_ AOI21X1
XOAI21X1_83 gnd vdd _910__bF$buf4 _1002_ _1256_ _924_ OAI21X1
XINVX1_37 _1256_ _1257_ vdd gnd INVX1
XNAND2X1_79 vdd _1258_ gnd _1165_ _1257_ NAND2X1
XNOR2X1_82 vdd _1258_ gnd _1259_ _996_ NOR2X1
XINVX2_9 vdd gnd _1260_ DIMUX<6> INVX2
XOAI21X1_84 gnd vdd _887_ IRHOLD<6> _1261_ _896__bF$buf1 OAI21X1
XAOI21X1_17 gnd vdd _887_ _1260_ _1262_ _1261_ AOI21X1
XNAND2X1_80 vdd _1263_ gnd _1092_ _1262_ NAND2X1
XNOR2X1_83 vdd _1263_ gnd _1264_ _1256_ NOR2X1
XNAND2X1_81 vdd _1265_ gnd _1264_ _1247_ NAND2X1
XOAI21X1_85 gnd vdd _996_ _1166_ _1266_ _1265_ OAI21X1
XNOR2X1_84 vdd _1266_ gnd _1267_ _1259_ NOR2X1
XNAND3X1_30 _1255_ vdd gnd _1253_ _1267_ _1268_ NAND3X1
XOAI21X1_86 gnd vdd _1268_ _1246_ _1269_ _1228_ OAI21X1
XNAND2X1_82 vdd _1270_ gnd _883_ _884_ NAND2X1
XNOR2X1_85 vdd _1270_ gnd _1271_ _957__bF$buf0 NOR2X1
XOAI21X1_87 gnd vdd _957__bF$buf4 _1051_ _1272_ RDY_bF$buf0 OAI21X1
XOAI21X1_88 gnd vdd RDY_bF$buf8 _1271_ _1273_ _1272_ OAI21X1
XNOR2X1_86 vdd _1270_ gnd _1274_ _962__bF$buf3 NOR2X1
XOAI21X1_89 gnd vdd _962__bF$buf2 _1051_ _1275_ RDY_bF$buf7 OAI21X1
XOAI21X1_90 gnd vdd RDY_bF$buf6 _1274_ _1276_ _1275_ OAI21X1
XNAND2X1_83 vdd _1277_ gnd _1276_ _1273_ NAND2X1
XNOR2X1_87 vdd _1269_ gnd _1278_ _1277_ NOR2X1
XOR2X2_7 _1279_ _1147_ vdd gnd _1161_ OR2X2
XNAND2X1_84 vdd _1280_ gnd _881__bF$buf6 _1219_ NAND2X1
XOAI21X1_91 gnd vdd _1022__bF$buf1 _1255_ _1281_ _1280_ OAI21X1
XINVX1_38 _942_ _1282_ vdd gnd INVX1
XNAND2X1_85 vdd _1283_ gnd write_back RDY_bF$buf5 NAND2X1
XAOI21X1_18 gnd vdd _1016_ _1283_ _1284_ _985_ AOI21X1
XAOI21X1_19 gnd vdd _1282_ _881__bF$buf5 _1285_ _1284_ AOI21X1
XINVX1_39 _1285_ _1286_ vdd gnd INVX1
XNOR2X1_88 vdd _1281_ gnd _1287_ _1286_ NOR2X1
XAND2X2_15 vdd gnd _1069_ _1134_ _1288_ AND2X2
XAND2X2_16 vdd gnd _1288_ _1083_ _1289_ AND2X2
XAND2X2_17 vdd gnd _1289_ _1185_ _1290_ AND2X2
XAND2X2_18 vdd gnd _1290_ _1106_ _1291_ AND2X2
XNAND3X1_31 _1291_ vdd gnd _1042_ _1287_ _1292_ NAND3X1
XNOR3X1_7 vdd gnd _1279_ _1292_ _1019_ _1293_ NOR3X1
XNAND3X1_32 _1293_ vdd gnd _1211_ _1278_ _878_ NAND3X1
XAOI22X1_9 gnd vdd _898_ _1205_ _1294_ _1100_ _1142_ AOI22X1
XNAND3X1_33 _1255_ vdd gnd _1241_ _1294_ _1295_ NAND3X1
XINVX1_40 _1295_ _1296_ vdd gnd INVX1
XNOR2X1_89 vdd _1099_ gnd _1297_ _1235_ NOR2X1
XNOR2X1_90 vdd _1263_ gnd _1298_ _1141_ NOR2X1
XNAND2X1_86 vdd _1299_ gnd _1298_ _1297_ NAND2X1
XNAND3X1_34 _1265_ vdd gnd _1237_ _1299_ _1300_ NAND3X1
XINVX1_41 _1229_ _1301_ vdd gnd INVX1
XAOI21X1_20 gnd vdd _1100_ _1094_ _1302_ _1242_ AOI21X1
XNAND2X1_87 vdd _1303_ gnd _1302_ _1301_ NAND2X1
XNOR3X1_8 vdd gnd _1300_ _1303_ _1167_ _1304_ NOR3X1
XNAND2X1_88 vdd _1305_ gnd _1298_ _1247_ NAND2X1
XNOR2X1_91 vdd _1189_ gnd _1306_ _1259_ NOR2X1
XNAND3X1_35 _1253_ vdd gnd _1305_ _1306_ _1307_ NAND3X1
XINVX1_42 _1307_ _1308_ vdd gnd INVX1
XNAND3X1_36 _1304_ vdd gnd _1296_ _1308_ _1309_ NAND3X1
XINVX1_43 _1211_ _1310_ vdd gnd INVX1
XNOR2X1_92 vdd _1310_ gnd _1311_ _1277_ NOR2X1
XNAND3X1_37 _1311_ vdd gnd _1228_ _1309_ _1312_ NAND3X1
XNAND2X1_89 vdd _1313_ gnd _995_ _909_ NAND2X1
XNOR2X1_93 vdd _1313_ gnd _1314_ _999_ NOR2X1
XOAI21X1_92 gnd vdd _1254_ _1314_ _1315_ _886__bF$buf2 OAI21X1
XNAND3X1_38 _1285_ vdd gnd _1280_ _1315_ _1316_ NAND3X1
XNOR2X1_94 vdd _1097_ gnd _1317_ _1023_ NOR2X1
XAOI22X1_10 gnd vdd _1206_ _1317_ _1318_ _881__bF$buf4 _1108_ AOI22X1
XOAI21X1_93 gnd vdd _937__bF$buf2 _1027_ _1319_ RDY_bF$buf4 OAI21X1
XOAI21X1_94 gnd vdd RDY_bF$buf3 _1112_ _1320_ _1319_ OAI21X1
XNAND2X1_90 vdd _1321_ gnd _1320_ _1318_ NAND2X1
XOAI21X1_95 gnd vdd _962__bF$buf1 _1027_ _1322_ RDY_bF$buf2 OAI21X1
XOAI21X1_96 gnd vdd RDY_bF$buf1 _1218_ _1323_ _1322_ OAI21X1
XOAI21X1_97 gnd vdd RDY_bF$buf0 _1127_ _1324_ _1323_ OAI21X1
XNOR2X1_95 vdd _1321_ gnd _1325_ _1324_ NOR2X1
XNAND3X1_39 _1325_ vdd gnd _1207_ _1190_ _1326_ NAND3X1
XNAND3X1_40 _1298_ vdd gnd _886__bF$buf1 _1247_ _1327_ NAND3X1
XNAND2X1_91 vdd _1329_ gnd _881__bF$buf3 _1132_ NAND2X1
XAND2X2_19 vdd gnd _1327_ _1329_ _1330_ AND2X2
XOAI21X1_98 gnd vdd _957__bF$buf3 _1031_ _1331_ RDY_bF$buf8 OAI21X1
XOAI21X1_99 gnd vdd RDY_bF$buf7 _1120_ _1332_ _1331_ OAI21X1
XAND2X2_20 vdd gnd _1247_ _1248_ _1333_ AND2X2
XOAI21X1_100 gnd vdd _1252_ _1333_ _1334_ _886__bF$buf0 OAI21X1
XNAND3X1_41 _1332_ vdd gnd _1330_ _1334_ _1335_ NAND3X1
XNOR3X1_9 vdd gnd _1326_ _1335_ _1316_ _1336_ NOR3X1
XNAND3X1_42 _1336_ vdd gnd _1187_ _1139_ _1337_ NAND3X1
XOAI21X1_101 gnd vdd _1022__bF$buf0 _1237_ _1338_ _1157_ OAI21X1
XNOR3X1_10 vdd gnd _1277_ _1126_ _1196_ _1339_ NOR3X1
XNAND2X1_92 vdd _1340_ gnd _1083_ _1063_ NAND2X1
XNAND2X1_93 vdd _1341_ gnd _1133_ _1134_ NAND2X1
XNOR2X1_96 vdd _1340_ gnd _1342_ _1341_ NOR2X1
XNAND3X1_43 _1342_ vdd gnd _1059_ _1339_ _1343_ NAND3X1
XNOR3X1_11 vdd gnd _1343_ _1338_ _1030_ _1344_ NOR3X1
XNAND2X1_94 vdd _1346_ gnd _1168_ _1172_ NAND2X1
XNOR2X1_97 vdd _1346_ gnd _1347_ _1147_ NOR2X1
XNOR2X1_98 vdd _1241_ gnd _1348_ _1022__bF$buf3 NOR2X1
XNAND3X1_44 _1332_ vdd gnd _1329_ _1327_ _1349_ NAND3X1
XNOR3X1_12 vdd gnd _1349_ _1348_ _992_ _1350_ NOR3X1
XNAND3X1_45 _1350_ vdd gnd _1344_ _1347_ _1351_ NAND3X1
XNOR2X1_99 vdd _1269_ gnd _1353_ _1351_ NOR2X1
XOAI21X1_102 gnd vdd _1312_ _1337_ _879_ _1353_ OAI21X1
XNAND3X1_46 _1211_ vdd gnd _1276_ _1018_ _1354_ NAND3X1
XNAND2X1_95 vdd _1355_ gnd _1078_ _1037_ NAND2X1
XNOR2X1_100 vdd _1354_ gnd _1356_ _1355_ NOR2X1
XNAND3X1_47 _1342_ vdd gnd _1116_ _1356_ _1357_ NAND3X1