* XSpice netlist created from SPICE and liberty sources by spi2xspice.py
*SPICE netlist created from BLIF module cpu by blif2BSpice
.subckt cpu a_vdd a_gnd a_clk a_reset a_DI_0_ a_DI_1_ a_DI_2_ a_DI_3_ a_DI_4_ a_DI_5_ a_DI_6_ a_DI_7_ a_IRQ a_NMI a_RDY a_AB_0_ a_AB_1_ a_AB_2_ a_AB_3_ a_AB_4_ a_AB_5_ a_AB_6_ a_AB_7_ a_AB_8_ a_AB_9_ a_AB_10_ a_AB_11_ a_AB_12_ a_AB_13_ a_AB_14_ a_AB_15_ a_DO_0_ a_DO_1_ a_DO_2_ a_DO_3_ a_DO_4_ a_DO_5_ a_DO_6_ a_DO_7_ a_WE
ABUFX4_1 [_1466_] _1466__bF$buf4 d_lut_BUFX4
ABUFX4_2 [_1466_] _1466__bF$buf3 d_lut_BUFX4
ABUFX4_3 [_1466_] _1466__bF$buf2 d_lut_BUFX4
ABUFX4_4 [_1466_] _1466__bF$buf1 d_lut_BUFX4
ABUFX4_5 [_1466_] _1466__bF$buf0 d_lut_BUFX4
ABUFX4_6 [clk] clk_bF$buf11 d_lut_BUFX4
ABUFX4_7 [clk] clk_bF$buf10 d_lut_BUFX4
ABUFX4_8 [clk] clk_bF$buf9 d_lut_BUFX4
ABUFX4_9 [clk] clk_bF$buf8 d_lut_BUFX4
ABUFX4_10 [clk] clk_bF$buf7 d_lut_BUFX4
ABUFX4_11 [clk] clk_bF$buf6 d_lut_BUFX4
ABUFX4_12 [clk] clk_bF$buf5 d_lut_BUFX4
ABUFX4_13 [clk] clk_bF$buf4 d_lut_BUFX4
ABUFX4_14 [clk] clk_bF$buf3 d_lut_BUFX4
ABUFX4_15 [clk] clk_bF$buf2 d_lut_BUFX4
ABUFX4_16 [clk] clk_bF$buf1 d_lut_BUFX4
ABUFX4_17 [clk] clk_bF$buf0 d_lut_BUFX4
ABUFX4_18 [_936_] _936__bF$buf3 d_lut_BUFX4
ABUFX4_19 [_936_] _936__bF$buf2 d_lut_BUFX4
ABUFX2_1 [_936_] _936__bF$buf1 d_lut_BUFX2
ABUFX4_20 [_936_] _936__bF$buf0 d_lut_BUFX4
ABUFX4_21 [_882_] _882__bF$buf5 d_lut_BUFX4
ABUFX4_22 [_882_] _882__bF$buf4 d_lut_BUFX4
ABUFX4_23 [_882_] _882__bF$buf3 d_lut_BUFX4
ABUFX4_24 [_882_] _882__bF$buf2 d_lut_BUFX4
ABUFX4_25 [_882_] _882__bF$buf1 d_lut_BUFX4
ABUFX4_26 [_882_] _882__bF$buf0 d_lut_BUFX4
ABUFX2_2 [_1717_] _1717__bF$buf3 d_lut_BUFX2
ABUFX4_27 [_1717_] _1717__bF$buf2 d_lut_BUFX4
ABUFX4_28 [_1717_] _1717__bF$buf1 d_lut_BUFX4
ABUFX4_29 [_1717_] _1717__bF$buf0 d_lut_BUFX4
ABUFX4_30 [_886_] _886__bF$buf4 d_lut_BUFX4
ABUFX4_31 [_886_] _886__bF$buf3 d_lut_BUFX4
ABUFX4_32 [_886_] _886__bF$buf2 d_lut_BUFX4
ABUFX4_33 [_886_] _886__bF$buf1 d_lut_BUFX4
ABUFX4_34 [_886_] _886__bF$buf0 d_lut_BUFX4
ABUFX4_35 [_881_] _881__bF$buf7 d_lut_BUFX4
ABUFX4_36 [_881_] _881__bF$buf6 d_lut_BUFX4
ABUFX4_37 [_881_] _881__bF$buf5 d_lut_BUFX4
ABUFX4_38 [_881_] _881__bF$buf4 d_lut_BUFX4
ABUFX4_39 [_881_] _881__bF$buf3 d_lut_BUFX4
ABUFX4_40 [_881_] _881__bF$buf2 d_lut_BUFX4
ABUFX4_41 [_881_] _881__bF$buf1 d_lut_BUFX4
ABUFX4_42 [_881_] _881__bF$buf0 d_lut_BUFX4
ABUFX4_43 [RDY] RDY_bF$buf8 d_lut_BUFX4
ABUFX4_44 [RDY] RDY_bF$buf7 d_lut_BUFX4
ABUFX4_45 [RDY] RDY_bF$buf6 d_lut_BUFX4
ABUFX4_46 [RDY] RDY_bF$buf5 d_lut_BUFX4
ABUFX4_47 [RDY] RDY_bF$buf4 d_lut_BUFX4
ABUFX4_48 [RDY] RDY_bF$buf3 d_lut_BUFX4
ABUFX4_49 [RDY] RDY_bF$buf2 d_lut_BUFX4
ABUFX4_50 [RDY] RDY_bF$buf1 d_lut_BUFX4
ABUFX4_51 [RDY] RDY_bF$buf0 d_lut_BUFX4
ABUFX4_52 [_957_] _957__bF$buf4 d_lut_BUFX4
ABUFX4_53 [_957_] _957__bF$buf3 d_lut_BUFX4
ABUFX4_54 [_957_] _957__bF$buf2 d_lut_BUFX4
ABUFX4_55 [_957_] _957__bF$buf1 d_lut_BUFX4
ABUFX4_56 [_957_] _957__bF$buf0 d_lut_BUFX4
ABUFX4_57 [_885_] _885__bF$buf4 d_lut_BUFX4
ABUFX4_58 [_885_] _885__bF$buf3 d_lut_BUFX4
ABUFX4_59 [_885_] _885__bF$buf2 d_lut_BUFX4
ABUFX4_60 [_885_] _885__bF$buf1 d_lut_BUFX4
ABUFX4_61 [_885_] _885__bF$buf0 d_lut_BUFX4
ABUFX4_62 [_910_] _910__bF$buf4 d_lut_BUFX4
ABUFX4_63 [_910_] _910__bF$buf3 d_lut_BUFX4
ABUFX4_64 [_910_] _910__bF$buf2 d_lut_BUFX4
ABUFX4_65 [_910_] _910__bF$buf1 d_lut_BUFX4
ABUFX4_66 [_910_] _910__bF$buf0 d_lut_BUFX4
ABUFX2_3 [_896_] _896__bF$buf3 d_lut_BUFX2
ABUFX2_4 [_896_] _896__bF$buf2 d_lut_BUFX2
ABUFX2_5 [_896_] _896__bF$buf1 d_lut_BUFX2
ABUFX2_6 [_896_] _896__bF$buf0 d_lut_BUFX2
ABUFX4_67 [_535_] _535__bF$buf4 d_lut_BUFX4
ABUFX4_68 [_535_] _535__bF$buf3 d_lut_BUFX4
ABUFX4_69 [_535_] _535__bF$buf2 d_lut_BUFX4
ABUFX4_70 [_535_] _535__bF$buf1 d_lut_BUFX4
ABUFX4_71 [_535_] _535__bF$buf0 d_lut_BUFX4
ABUFX4_72 [_1034_] _1034__bF$buf3 d_lut_BUFX4
ABUFX4_73 [_1034_] _1034__bF$buf2 d_lut_BUFX4
ABUFX2_7 [_1034_] _1034__bF$buf1 d_lut_BUFX2
ABUFX2_8 [_1034_] _1034__bF$buf0 d_lut_BUFX2
ABUFX4_74 [_1057_] _1057__bF$buf3 d_lut_BUFX4
ABUFX4_75 [_1057_] _1057__bF$buf2 d_lut_BUFX4
ABUFX4_76 [_1057_] _1057__bF$buf1 d_lut_BUFX4
ABUFX4_77 [_1057_] _1057__bF$buf0 d_lut_BUFX4
ABUFX4_78 [_1022_] _1022__bF$buf3 d_lut_BUFX4
ABUFX4_79 [_1022_] _1022__bF$buf2 d_lut_BUFX4
ABUFX4_80 [_1022_] _1022__bF$buf1 d_lut_BUFX4
ABUFX4_81 [_1022_] _1022__bF$buf0 d_lut_BUFX4
ABUFX4_82 [_937_] _937__bF$buf4 d_lut_BUFX4
ABUFX4_83 [_937_] _937__bF$buf3 d_lut_BUFX4
ABUFX4_84 [_937_] _937__bF$buf2 d_lut_BUFX4
ABUFX4_85 [_937_] _937__bF$buf1 d_lut_BUFX4
ABUFX4_86 [_937_] _937__bF$buf0 d_lut_BUFX4
ABUFX4_87 [_962_] _962__bF$buf4 d_lut_BUFX4
ABUFX4_88 [_962_] _962__bF$buf3 d_lut_BUFX4
ABUFX4_89 [_962_] _962__bF$buf2 d_lut_BUFX4
ABUFX4_90 [_962_] _962__bF$buf1 d_lut_BUFX4
ABUFX4_91 [_962_] _962__bF$buf0 d_lut_BUFX4
AINVX8_1 [RDY_bF$buf8] _881_ d_lut_INVX8
ANOR2X1_1 [state_5_ state_4_] _882_ d_lut_NOR2X1
ANOR2X1_2 [state_0_ state_1_] _883_ d_lut_NOR2X1
AAND2X2_1 [state_2_ state_3_] _884_ d_lut_AND2X2
ANAND3X1_1 [_882__bF$buf5 _883_ _884_] _885_ d_lut_NAND3X1
ANOR2X1_3 [_881__bF$buf7 _885__bF$buf4] _886_ d_lut_NOR2X1
AINVX4_1 [IRHOLD_valid] _887_ d_lut_INVX4
AINVX1_1 [DIHOLD_4_] _889_ d_lut_INVX1
ANAND2X1_1 [RDY_bF$buf7 DI_4_] _890_ d_lut_NAND2X1
AOAI21X1_1 [RDY_bF$buf6 _889_ _890_] DIMUX_4_ d_lut_OAI21X1
AINVX4_2 [DIMUX_4_] _891_ d_lut_INVX4
AINVX1_2 [I] _892_ d_lut_INVX1
AINVX1_3 [IRQ] _893_ d_lut_INVX1
AINVX2_1 [NMI_edge] _894_ d_lut_INVX2
ANAND2X1_2 [_893_ _894_] _895_ d_lut_NAND2X1
AOAI21X1_2 [_892_ NMI_edge _895_] _896_ d_lut_OAI21X1
AOAI21X1_3 [_887_ IRHOLD_4_ _896__bF$buf3] _897_ d_lut_OAI21X1
AAOI21X1_1 [_887_ _891_ _897_] _898_ d_lut_AOI21X1
AINVX1_4 [IRHOLD_3_] _899_ d_lut_INVX1
AINVX1_5 [DIHOLD_3_] _900_ d_lut_INVX1
ANAND2X1_3 [RDY_bF$buf5 DI_3_] _901_ d_lut_NAND2X1
AOAI21X1_4 [RDY_bF$buf4 _900_ _901_] DIMUX_3_ d_lut_OAI21X1
ANAND2X1_4 [_887_ DIMUX_3_] _902_ d_lut_NAND2X1
AOAI21X1_5 [_887_ _899_ _902_] _903_ d_lut_OAI21X1
ANAND2X1_5 [_896__bF$buf2 _903_] _904_ d_lut_NAND2X1
AMUX2X1_1 [DI_2_ DIHOLD_2_ RDY_bF$buf3] _905_ d_lut_MUX2X1
ANAND2X1_6 [IRHOLD_valid IRHOLD_2_] _906_ d_lut_NAND2X1
AOAI21X1_6 [IRHOLD_valid _905_ _906_] _907_ d_lut_OAI21X1
AAND2X2_2 [_907_ _896__bF$buf1] _908_ d_lut_AND2X2
ANOR2X1_4 [_908_ _904_] _909_ d_lut_NOR2X1
AOAI21X1_7 [I _893_ _894_] _910_ d_lut_OAI21X1
AINVX1_6 [DIHOLD_1_] _911_ d_lut_INVX1
ANAND2X1_7 [RDY_bF$buf2 DI_1_] _912_ d_lut_NAND2X1
AOAI21X1_8 [RDY_bF$buf1 _911_ _912_] DIMUX_1_ d_lut_OAI21X1
AMUX2X1_2 [DIMUX_1_ IRHOLD_1_ _887_] _913_ d_lut_MUX2X1
AOR2X2_1 [_913_ _910__bF$buf4] _914_ d_lut_OR2X2
AINVX1_7 [DIHOLD_0_] _915_ d_lut_INVX1
ANAND2X1_8 [RDY_bF$buf0 DI_0_] _916_ d_lut_NAND2X1
AOAI21X1_9 [RDY_bF$buf8 _915_ _916_] DIMUX_0_ d_lut_OAI21X1
AMUX2X1_3 [DIMUX_0_ IRHOLD_0_ _887_] _917_ d_lut_MUX2X1
ANOR2X1_5 [_910__bF$buf3 _917_] _918_ d_lut_NOR2X1
AAND2X2_3 [_914_ _918_] _919_ d_lut_AND2X2
ANAND2X1_9 [_909_ _919_] _920_ d_lut_NAND2X1
AOAI21X1_10 [_907_ _903_ _896__bF$buf0] _921_ d_lut_OAI21X1
AINVX1_8 [IRHOLD_4_] _922_ d_lut_INVX1
AAOI21X1_2 [IRHOLD_valid _922_ _910__bF$buf2] _923_ d_lut_AOI21X1
AOAI21X1_11 [IRHOLD_valid DIMUX_4_ _923_] _924_ d_lut_OAI21X1
AMUX2X1_4 [DI_7_ DIHOLD_7_ RDY_bF$buf7] _925_ d_lut_MUX2X1
ANAND2X1_10 [IRHOLD_valid IRHOLD_7_] _926_ d_lut_NAND2X1
AOAI21X1_12 [IRHOLD_valid _925_ _926_] _927_ d_lut_OAI21X1
AAND2X2_4 [_927_ _896__bF$buf3] _928_ d_lut_AND2X2
ANAND2X1_11 [_924_ _928_] _929_ d_lut_NAND2X1
ANOR2X1_6 [_918_ _929_] _930_ d_lut_NOR2X1
ANAND2X1_12 [_921_ _930_] _931_ d_lut_NAND2X1
AOAI21X1_13 [_898_ _920_ _931_] _932_ d_lut_OAI21X1
AINVX2_2 [state_0_] _933_ d_lut_INVX2
ANOR2X1_7 [state_1_ _933_] _934_ d_lut_NOR2X1
ANOR2X1_8 [state_2_ state_3_] _935_ d_lut_NOR2X1
ANAND2X1_13 [_935_ _934_] _936_ d_lut_NAND2X1
AINVX8_2 [_882__bF$buf4] _937_ d_lut_INVX8
AINVX1_9 [state_3_] _938_ d_lut_INVX1
ANAND2X1_14 [state_2_ _938_] _939_ d_lut_NAND2X1
AOR2X2_2 [state_0_ state_1_] _940_ d_lut_OR2X2
ANOR2X1_9 [_940_ _939_] _941_ d_lut_NOR2X1
ANAND2X1_15 [_882__bF$buf3 _941_] _942_ d_lut_NAND2X1
AOAI21X1_14 [_936__bF$buf3 _937__bF$buf4 _942_] _943_ d_lut_OAI21X1
AAND2X2_5 [state_5_ state_4_] _944_ d_lut_AND2X2
AINVX2_3 [_944_] _945_ d_lut_INVX2
AINVX1_10 [state_5_] _946_ d_lut_INVX1
ANOR2X1_10 [state_4_ _946_] _947_ d_lut_NOR2X1
ANAND2X1_16 [state_2_ state_3_] _948_ d_lut_NAND2X1
ANAND2X1_17 [state_0_ state_1_] _949_ d_lut_NAND2X1
ANOR2X1_11 [_948_ _949_] _950_ d_lut_NOR2X1
ANAND2X1_18 [_947_ _950_] _951_ d_lut_NAND2X1
AOAI21X1_15 [_945_ _936__bF$buf2 _951_] _952_ d_lut_OAI21X1
ANOR2X1_12 [_952_ _943_] _953_ d_lut_NOR2X1
AINVX1_11 [_936__bF$buf1] _954_ d_lut_INVX1
AINVX2_4 [state_4_] _955_ d_lut_INVX2
ANOR2X1_13 [state_5_ _955_] _956_ d_lut_NOR2X1
ANAND2X1_19 [state_5_ _955_] _957_ d_lut_NAND2X1
ANAND3X1_2 [_933_ state_1_ _884_] _958_ d_lut_NAND3X1
ANOR2X1_14 [_957__bF$buf4 _958_] _959_ d_lut_NOR2X1
AAOI21X1_3 [_954_ _956_ _959_] _960_ d_lut_AOI21X1
ANOR3X1_1 [state_1_ _933_ _948_] _961_ d_lut_NOR3X1
ANAND2X1_20 [state_4_ _946_] _962_ d_lut_NAND2X1
ANAND2X1_21 [_957__bF$buf3 _962__bF$buf4] _963_ d_lut_NAND2X1
AINVX2_5 [state_2_] _964_ d_lut_INVX2
ANOR2X1_15 [state_3_ _964_] _965_ d_lut_NOR2X1
ANAND2X1_22 [_934_ _965_] _966_ d_lut_NAND2X1
ANOR2X1_16 [_962__bF$buf3 _966_] _967_ d_lut_NOR2X1
AAOI21X1_4 [_961_ _963_ _967_] _968_ d_lut_AOI21X1
ANAND2X1_23 [_960_ _968_] _969_ d_lut_NAND2X1
ANAND3X1_3 [RDY_bF$buf6 _953_ _969_] _970_ d_lut_NAND3X1
ANAND2X1_24 [_884_ _934_] _971_ d_lut_NAND2X1
ANOR3X1_2 [state_0_ state_1_ _948_] _972_ d_lut_NOR3X1
ANAND2X1_25 [RDY_bF$buf5 _972_] _973_ d_lut_NAND2X1
AOAI21X1_16 [RDY_bF$buf4 _971_ _973_] _974_ d_lut_OAI21X1
AAND2X2_6 [_974_ _947_] _975_ d_lut_AND2X2
ANAND2X1_26 [_956_ _941_] _976_ d_lut_NAND2X1
ANOR2X1_17 [_937__bF$buf3 _971_] _977_ d_lut_NOR2X1
AINVX2_6 [_977_] _978_ d_lut_INVX2
ANOR2X1_18 [ALU.CO store] _979_ d_lut_NOR2X1
ANAND2X1_27 [RDY_bF$buf3 _979_] _980_ d_lut_NAND2X1
AOAI22X1_1 [_976_ _980_ RDY_bF$buf2 _978_] _981_ d_lut_OAI22X1
AAND2X2_7 [state_0_ state_1_] _982_ d_lut_AND2X2
ANAND2X1_28 [_935_ _982_] _983_ d_lut_NAND2X1
AINVX1_12 [_983_] _984_ d_lut_INVX1
ANAND2X1_29 [_882__bF$buf2 _984_] _985_ d_lut_NAND2X1
AINVX2_7 [write_back] _986_ d_lut_INVX2
ANAND3X1_4 [_986_ RDY_bF$buf1 _979_] _987_ d_lut_NAND3X1
ANOR2X1_19 [_987_ _985_] _988_ d_lut_NOR2X1
ANOR3X1_3 [_988_ _975_ _981_] _989_ d_lut_NOR3X1
AOR2X2_3 [_943_ _952_] _990_ d_lut_OR2X2
ANAND3X1_5 [_986_ RDY_bF$buf0 _990_] _991_ d_lut_NAND3X1
ANAND3X1_6 [_970_ _991_ _989_] _992_ d_lut_NAND3X1
AAOI21X1_5 [_932_ _886__bF$buf4 _992_] _993_ d_lut_AOI21X1
ANOR2X1_20 [_910__bF$buf1 _913_] _994_ d_lut_NOR2X1
ANOR2X1_21 [_994_ _918_] _995_ d_lut_NOR2X1
ANAND2X1_30 [_921_ _995_] _996_ d_lut_NAND2X1
ANAND2X1_31 [_887_ DIMUX_4_] _997_ d_lut_NAND2X1
AOAI21X1_17 [_887_ _922_ _997_] _998_ d_lut_OAI21X1
AOAI21X1_18 [_927_ _998_ _896__bF$buf2] _999_ d_lut_OAI21X1
AINVX1_13 [DIHOLD_5_] _1000_ d_lut_INVX1
ANAND2X1_32 [RDY_bF$buf8 DI_5_] _1001_ d_lut_NAND2X1
AOAI21X1_19 [RDY_bF$buf7 _1000_ _1001_] DIMUX_5_ d_lut_OAI21X1
AMUX2X1_5 [DIMUX_5_ IRHOLD_5_ _887_] _1002_ d_lut_MUX2X1
ANOR2X1_22 [_910__bF$buf0 _1002_] _1003_ d_lut_NOR2X1
AINVX1_14 [DIHOLD_6_] _1004_ d_lut_INVX1
ANAND2X1_33 [RDY_bF$buf6 DI_6_] _1005_ d_lut_NAND2X1
AOAI21X1_20 [RDY_bF$buf5 _1004_ _1005_] DIMUX_6_ d_lut_OAI21X1
AINVX1_15 [IRHOLD_6_] _1006_ d_lut_INVX1
AAOI21X1_6 [IRHOLD_valid _1006_ _910__bF$buf4] _1007_ d_lut_AOI21X1
AOAI21X1_21 [IRHOLD_valid DIMUX_6_ _1007_] _1008_ d_lut_OAI21X1
ANOR2X1_23 [_1008_ _1003_] _1009_ d_lut_NOR2X1
ANAND2X1_34 [_999_ _1009_] _1010_ d_lut_NAND2X1
ANOR2X1_24 [_1010_ _996_] _1011_ d_lut_NOR2X1
ANAND3X1_7 [_934_ _947_ _965_] _1012_ d_lut_NAND3X1
AINVX1_16 [_1012_] _1013_ d_lut_INVX1
AAOI22X1_1 [_881__bF$buf6 _1013_ _886__bF$buf3 _1011_] _1014_ d_lut_AOI22X1
ANAND2X1_35 [_881__bF$buf5 _967_] _1015_ d_lut_NAND2X1
AOAI21X1_22 [ALU.CO store RDY_bF$buf4] _1016_ d_lut_OAI21X1
AOAI21X1_23 [_976_ _1016_ _1015_] _1017_ d_lut_OAI21X1
AINVX1_17 [_1017_] _1018_ d_lut_INVX1
ANAND3X1_8 [_1014_ _1018_ _993_] _1019_ d_lut_NAND3X1
AINVX1_18 [_951_] _1020_ d_lut_INVX1
AOAI21X1_24 [_998_ _903_ _896__bF$buf1] _1021_ d_lut_OAI21X1
AINVX8_3 [_886__bF$buf2] _1022_ d_lut_INVX8
ANAND2X1_36 [_896__bF$buf0 _907_] _1023_ d_lut_NAND2X1
ANOR2X1_25 [_1023_ _1022__bF$buf3] _1024_ d_lut_NOR2X1
AAOI22X1_2 [_881__bF$buf4 _1020_ _1021_ _1024_] _1025_ d_lut_AOI22X1
AOAI21X1_25 [_937__bF$buf2 _958_ RDY_bF$buf3] _1026_ d_lut_OAI21X1
ANAND2X1_37 [_884_ _982_] _1027_ d_lut_NAND2X1
ANOR2X1_26 [_937__bF$buf1 _1027_] _1028_ d_lut_NOR2X1
AOAI21X1_26 [RDY_bF$buf2 _1028_ _1026_] _1029_ d_lut_OAI21X1
ANAND2X1_38 [_1029_ _1025_] _1030_ d_lut_NAND2X1
ANAND2X1_39 [_982_ _965_] _1031_ d_lut_NAND2X1
ANOR2X1_27 [_962__bF$buf2 _1031_] _1032_ d_lut_NOR2X1
ANAND2X1_40 [state_1_ _933_] _1033_ d_lut_NAND2X1
ANOR2X1_28 [_939_ _1033_] _1034_ d_lut_NOR2X1
AINVX1_19 [_1034__bF$buf3] _1035_ d_lut_INVX1
AOAI21X1_27 [_962__bF$buf1 _1035_ RDY_bF$buf1] _1036_ d_lut_OAI21X1
AOAI21X1_28 [RDY_bF$buf0 _1032_ _1036_] _1037_ d_lut_OAI21X1
ANOR2X1_29 [_957__bF$buf2 _1031_] _1038_ d_lut_NOR2X1
AOAI21X1_29 [_957__bF$buf1 _1035_ RDY_bF$buf8] _1039_ d_lut_OAI21X1
AOAI21X1_30 [RDY_bF$buf7 _1038_ _1039_] _1040_ d_lut_OAI21X1
ANAND2X1_41 [_1037_ _1040_] _1041_ d_lut_NAND2X1
ANOR2X1_30 [_1041_ _1030_] _1042_ d_lut_NOR2X1
ANOR3X1_4 [state_2_ _938_ _949_] _1043_ d_lut_NOR3X1
ANAND2X1_42 [_947_ _1043_] _1044_ d_lut_NAND2X1
ANAND2X1_43 [state_3_ _964_] _1045_ d_lut_NAND2X1
ANOR2X1_31 [_1033_ _1045_] _1046_ d_lut_NOR2X1
ANAND2X1_44 [_947_ _1046_] _1047_ d_lut_NAND2X1
AINVX1_20 [_1047_] _1048_ d_lut_INVX1
ANAND2X1_45 [RDY_bF$buf6 _1048_] _1049_ d_lut_NAND2X1
AOAI21X1_31 [RDY_bF$buf5 _1044_ _1049_] _1050_ d_lut_OAI21X1
ANAND3X1_9 [_964_ state_3_ _982_] _1051_ d_lut_NAND3X1
ANOR2X1_32 [_937__bF$buf0 _1051_] _1052_ d_lut_NOR2X1
AINVX1_21 [_1052_] _1053_ d_lut_INVX1
AINVX1_22 [state_1_] _1054_ d_lut_INVX1
ANOR2X1_33 [state_0_ _1054_] _1055_ d_lut_NOR2X1
ANOR2X1_34 [state_2_ _938_] _1056_ d_lut_NOR2X1
ANAND3X1_10 [_882__bF$buf1 _1055_ _1056_] _1057_ d_lut_NAND3X1
AMUX2X1_6 [_1053_ _1057__bF$buf3 _881__bF$buf3] _1058_ d_lut_MUX2X1
ANOR2X1_35 [_1058_ _1050_] _1059_ d_lut_NOR2X1
AOAI21X1_32 [_962__bF$buf0 _1051_ _881__bF$buf2] _1060_ d_lut_OAI21X1
ANAND2X1_46 [_1055_ _1056_] _1061_ d_lut_NAND2X1
ANOR2X1_36 [_962__bF$buf4 _1061_] _1062_ d_lut_NOR2X1
AOAI21X1_33 [_881__bF$buf1 _1062_ _1060_] _1063_ d_lut_OAI21X1
ANAND3X1_11 [_882__bF$buf0 _965_ _1055_] _1064_ d_lut_NAND3X1
AXOR2X1_1 [ALU.CO backwards] _1065_ d_lut_XOR2X1
AINVX1_23 [_1065_] _1066_ d_lut_INVX1
AOAI21X1_34 [_1064_ _1066_ RDY_bF$buf4] _1067_ d_lut_OAI21X1
ANOR2X1_37 [_937__bF$buf4 _1031_] _1068_ d_lut_NOR2X1
AOAI21X1_35 [RDY_bF$buf3 _1068_ _1067_] _1069_ d_lut_OAI21X1
AAND2X2_8 [_1069_ _1063_] _1070_ d_lut_AND2X2
AAND2X2_9 [_1059_ _1070_] _1071_ d_lut_AND2X2
ANOR2X1_38 [_986_ _881__bF$buf0] _1072_ d_lut_NOR2X1
ANOR2X1_39 [_957__bF$buf0 _983_] _1073_ d_lut_NOR2X1
AAOI22X1_3 [_881__bF$buf7 _1073_ _1072_ _990_] _1074_ d_lut_AOI22X1
ANOR2X1_40 [_962__bF$buf3 _983_] _1075_ d_lut_NOR2X1
ANAND3X1_12 [_933_ state_1_ _935_] _1076_ d_lut_NAND3X1
AOAI21X1_36 [_962__bF$buf2 _1076_ RDY_bF$buf2] _1077_ d_lut_OAI21X1
AOAI21X1_37 [RDY_bF$buf1 _1075_ _1077_] _1078_ d_lut_OAI21X1
ANAND2X1_47 [_1078_ _1074_] _1079_ d_lut_NAND2X1
ANAND3X1_13 [_884_ _956_ _1055_] _1080_ d_lut_NAND3X1
AINVX1_24 [_1080_] _1081_ d_lut_INVX1
AOAI21X1_38 [_962__bF$buf1 _1027_ _881__bF$buf6] _1082_ d_lut_OAI21X1
AOAI21X1_39 [_881__bF$buf5 _1081_ _1082_] _1083_ d_lut_OAI21X1
AOAI21X1_40 [_937__bF$buf3 _983_ _881__bF$buf4] _1084_ d_lut_OAI21X1
ANOR2X1_41 [_937__bF$buf2 _1076_] _1085_ d_lut_NOR2X1
AOAI21X1_41 [_881__bF$buf3 _1085_ _1084_] _1086_ d_lut_OAI21X1
ANAND2X1_48 [_1086_ _1083_] _1087_ d_lut_NAND2X1
ANOR2X1_42 [_1087_ _1079_] _1088_ d_lut_NOR2X1
ANAND3X1_14 [_1042_ _1071_ _1088_] _1089_ d_lut_NAND3X1
ANOR2X1_43 [_957__bF$buf4 _936__bF$buf0] _1090_ d_lut_NOR2X1
ANAND2X1_49 [_881__bF$buf2 _1090_] _1091_ d_lut_NAND2X1
ANAND2X1_50 [_896__bF$buf3 _927_] _1092_ d_lut_NAND2X1
ANAND2X1_51 [_1092_ _924_] _1093_ d_lut_NAND2X1
ANOR2X1_44 [_1003_ _1093_] _1094_ d_lut_NOR2X1
AINVX4_3 [DIMUX_3_] _1095_ d_lut_INVX4
AOAI21X1_42 [_887_ IRHOLD_3_ _896__bF$buf2] _1096_ d_lut_OAI21X1
AAOI21X1_7 [_887_ _1095_ _1096_] _1097_ d_lut_AOI21X1
ANAND2X1_52 [_1023_ _1097_] _1098_ d_lut_NAND2X1
AOAI21X1_43 [_910__bF$buf3 _917_ _914_] _1099_ d_lut_OAI21X1
ANOR2X1_45 [_1098_ _1099_] _1100_ d_lut_NOR2X1
ANAND3X1_15 [_886__bF$buf1 _1094_ _1100_] _1101_ d_lut_NAND3X1
AAND2X2_10 [_1101_ _1091_] _1102_ d_lut_AND2X2
ANAND3X1_16 [_882__bF$buf5 _934_ _965_] _1103_ d_lut_NAND3X1
AINVX1_25 [_1103_] _1104_ d_lut_INVX1
ANOR2X1_46 [_924_ _996_] _1105_ d_lut_NOR2X1
AAOI22X1_4 [_881__bF$buf1 _1104_ _886__bF$buf0 _1105_] _1106_ d_lut_AOI22X1
ANAND3X1_17 [_935_ _883_ _944_] _1107_ d_lut_NAND3X1
AINVX1_26 [_1107_] _1108_ d_lut_INVX1
AOAI21X1_44 [_945_ _936__bF$buf3 _881__bF$buf0] _1109_ d_lut_OAI21X1
AOAI21X1_45 [_881__bF$buf7 _1108_ _1109_] _1110_ d_lut_OAI21X1
ANAND2X1_53 [_935_ _883_] _1111_ d_lut_NAND2X1
ANOR2X1_47 [_962__bF$buf0 _1111_] _1112_ d_lut_NOR2X1
AOAI21X1_46 [_962__bF$buf4 _936__bF$buf2 _881__bF$buf6] _1113_ d_lut_OAI21X1
AOAI21X1_47 [_881__bF$buf5 _1112_ _1113_] _1114_ d_lut_OAI21X1
ANAND2X1_54 [_1114_ _1110_] _1115_ d_lut_NAND2X1
AINVX1_27 [_1115_] _1116_ d_lut_INVX1
ANAND2X1_55 [_934_ _1056_] _1117_ d_lut_NAND2X1
AOAI21X1_48 [_957__bF$buf3 _1117_ _881__bF$buf4] _1118_ d_lut_OAI21X1
ANAND3X1_18 [_964_ state_3_ _883_] _1119_ d_lut_NAND3X1
ANOR2X1_48 [_957__bF$buf2 _1119_] _1120_ d_lut_NOR2X1
AOAI21X1_49 [_881__bF$buf3 _1120_ _1118_] _1121_ d_lut_OAI21X1
ANOR2X1_49 [_937__bF$buf1 _1117_] _1122_ d_lut_NOR2X1
ANOR2X1_50 [RDY_bF$buf0 _1122_] _1123_ d_lut_NOR2X1
ANOR2X1_51 [_940_ _1045_] _1124_ d_lut_NOR2X1
AAOI21X1_8 [_1124_ _882__bF$buf4 _881__bF$buf2] _1125_ d_lut_AOI21X1
AOAI21X1_50 [_1125_ _1123_ _1121_] _1126_ d_lut_OAI21X1
ANAND3X1_19 [_935_ _882__bF$buf3 _883_] _1127_ d_lut_NAND3X1
AINVX1_28 [_1127_] _1128_ d_lut_INVX1
AOAI21X1_51 [_937__bF$buf0 _936__bF$buf1 _881__bF$buf1] _1129_ d_lut_OAI21X1
AOAI21X1_52 [_881__bF$buf0 _1128_ _1129_] _1130_ d_lut_OAI21X1
AOAI21X1_53 [_962__bF$buf3 _1117_ _881__bF$buf7] _1131_ d_lut_OAI21X1
ANOR2X1_52 [_962__bF$buf2 _1119_] _1132_ d_lut_NOR2X1
AOAI21X1_54 [_881__bF$buf6 _1132_ _1131_] _1133_ d_lut_OAI21X1
ANAND2X1_56 [_956_ _974_] _1134_ d_lut_NAND2X1
ANAND3X1_20 [_1130_ _1133_ _1134_] _1135_ d_lut_NAND3X1
ANOR2X1_53 [_1135_ _1126_] _1136_ d_lut_NOR2X1
AAND2X2_11 [_1136_ _1116_] _1137_ d_lut_AND2X2
ANAND3X1_21 [_1106_ _1137_ _1102_] _1138_ d_lut_NAND3X1
ANOR3X1_5 [_1138_ _1089_ _1019_] _1139_ d_lut_NOR3X1
AINVX1_29 [_1139_] _876_ d_lut_INVX1
AINVX1_30 [_1089_] _1140_ d_lut_INVX1
ANAND2X1_57 [_924_ _1003_] _1141_ d_lut_NAND2X1
ANOR2X1_54 [_928_ _1141_] _1142_ d_lut_NOR2X1
ANAND3X1_22 [_886__bF$buf4 _1142_ _1100_] _1143_ d_lut_NAND3X1
ANAND2X1_58 [_881__bF$buf5 _1081_] _1144_ d_lut_NAND2X1
AOAI21X1_55 [_957__bF$buf1 _958_ _881__bF$buf4] _1145_ d_lut_OAI21X1
AOAI21X1_56 [_881__bF$buf3 _1073_ _1145_] _1146_ d_lut_OAI21X1
ANAND3X1_23 [_1144_ _1146_ _1143_] _1147_ d_lut_NAND3X1
ANOR2X1_55 [_1023_ _918_] _1148_ d_lut_NOR2X1
ANAND3X1_24 [_1097_ _914_ _1148_] _1149_ d_lut_NAND3X1
ANOR2X1_56 [_1010_ _1149_] _1150_ d_lut_NOR2X1
ANAND2X1_59 [_956_ _1034__bF$buf2] _1151_ d_lut_NAND2X1
ANOR2X1_57 [_962__bF$buf1 _1117_] _1152_ d_lut_NOR2X1
AOAI21X1_57 [_1052_ _1152_ RDY_bF$buf8] _1153_ d_lut_OAI21X1
AOAI21X1_58 [RDY_bF$buf7 _1151_ _1153_] _1154_ d_lut_OAI21X1
AAOI21X1_9 [_1150_ _886__bF$buf3 _1154_] _1155_ d_lut_AOI21X1
ANOR2X1_58 [_937__bF$buf4 _958_] _1156_ d_lut_NOR2X1
ANAND2X1_60 [_881__bF$buf2 _1156_] _1157_ d_lut_NAND2X1
ANAND2X1_61 [_921_ _919_] _1158_ d_lut_NAND2X1
ANOR2X1_59 [_898_ _1158_] _1159_ d_lut_NOR2X1
ANAND2X1_62 [_886__bF$buf2 _1159_] _1160_ d_lut_NAND2X1
ANAND3X1_25 [_1157_ _1160_ _1155_] _1161_ d_lut_NAND3X1
AOR2X2_4 [_1002_ _910__bF$buf2] _1162_ d_lut_OR2X2
ANOR2X1_60 [_898_ _1162_] _1163_ d_lut_NOR2X1
ANAND2X1_63 [_1092_ _1008_] _1164_ d_lut_NAND2X1
AINVX1_31 [_1164_] _1165_ d_lut_INVX1
ANAND2X1_64 [_1165_ _1163_] _1166_ d_lut_NAND2X1
ANOR2X1_61 [_996_ _1166_] _1167_ d_lut_NOR2X1
AAOI22X1_5 [_881__bF$buf1 _1062_ _886__bF$buf1 _1167_] _1168_ d_lut_AOI22X1
ANOR2X1_62 [_1008_ _928_] _1169_ d_lut_NOR2X1
ANAND2X1_65 [_1169_ _1163_] _1170_ d_lut_NAND2X1
ANOR2X1_63 [_996_ _1170_] _1171_ d_lut_NOR2X1
AAOI22X1_6 [_881__bF$buf0 _1048_ _886__bF$buf0 _1171_] _1172_ d_lut_AOI22X1
ANOR2X1_64 [_881__bF$buf7 _1103_] _1173_ d_lut_NOR2X1
AINVX1_32 [Z] _1174_ d_lut_INVX1
ANAND2X1_66 [cond_code_1_ _1174_] _1175_ d_lut_NAND2X1
AOAI21X1_59 [cond_code_1_ C _1175_] _1176_ d_lut_OAI21X1
AINVX1_33 [V] _1177_ d_lut_INVX1
ANAND2X1_67 [cond_code_1_ _1177_] _1178_ d_lut_NAND2X1
AOAI21X1_60 [N cond_code_1_ _1178_] _1179_ d_lut_OAI21X1
AMUX2X1_7 [_1176_ _1179_ cond_code_2_] _1180_ d_lut_MUX2X1
AXNOR2X1_1 [_1180_ cond_code_0_] _1181_ d_lut_XNOR2X1
AOAI21X1_61 [_957__bF$buf0 _1035_ _881__bF$buf6] _1182_ d_lut_OAI21X1
AOAI21X1_62 [_881__bF$buf5 _1013_ _1182_] _1183_ d_lut_OAI21X1
AOAI21X1_63 [RDY_bF$buf6 _1064_ _1183_] _1184_ d_lut_OAI21X1
AAOI21X1_10 [_1181_ _1173_ _1184_] _1185_ d_lut_AOI21X1
ANAND3X1_26 [_1185_ _1168_ _1172_] _1186_ d_lut_NAND3X1
ANOR3X1_6 [_1147_ _1161_ _1186_] _1187_ d_lut_NOR3X1
ANOR2X1_65 [_962__bF$buf0 _1076_] _1188_ d_lut_NOR2X1
ANOR2X1_66 [_924_ _1158_] _1189_ d_lut_NOR2X1
AAOI22X1_7 [_881__bF$buf4 _1188_ _886__bF$buf4 _1189_] _1190_ d_lut_AOI22X1
ANAND2X1_68 [state_0_ _1054_] _1191_ d_lut_NAND2X1
ANOR2X1_67 [_1191_ _1045_] _1192_ d_lut_NOR2X1
ANAND2X1_69 [_882__bF$buf2 _1192_] _1193_ d_lut_NAND2X1
AINVX2_8 [_1057__bF$buf2] _1194_ d_lut_INVX2
ANAND2X1_70 [_881__bF$buf3 _1194_] _1195_ d_lut_NAND2X1
AOAI21X1_64 [_881__bF$buf2 _1193_ _1195_] _1196_ d_lut_OAI21X1
AINVX1_34 [_1085_] _1197_ d_lut_INVX1
ANOR2X1_68 [_957__bF$buf4 _1076_] _1198_ d_lut_NOR2X1
AOAI21X1_65 [_957__bF$buf3 _936__bF$buf0 RDY_bF$buf5] _1199_ d_lut_OAI21X1
AOAI21X1_66 [RDY_bF$buf4 _1198_ _1199_] _1200_ d_lut_OAI21X1
AOAI21X1_67 [RDY_bF$buf3 _1197_ _1200_] _1201_ d_lut_OAI21X1
AOR2X2_5 [_1201_ _1196_] _1202_ d_lut_OR2X2
AOAI21X1_68 [_910__bF$buf1 _913_ _918_] _1203_ d_lut_OAI21X1
ANAND2X1_71 [_908_ _1097_] _1204_ d_lut_NAND2X1
AOAI21X1_69 [_1203_ _1098_ _1204_] _1205_ d_lut_OAI21X1
ANOR2X1_69 [_924_ _1022__bF$buf2] _1206_ d_lut_NOR2X1
AAOI21X1_11 [_1205_ _1206_ _1202_] _1207_ d_lut_AOI21X1
AAND2X2_12 [_1190_ _1207_] _1208_ d_lut_AND2X2
ANAND3X1_27 [_1140_ _1208_ _1187_] _877_ d_lut_NAND3X1
ANAND2X1_72 [_883_ _965_] _1209_ d_lut_NAND2X1
AOAI21X1_70 [_962__bF$buf4 _1209_ _881__bF$buf1] _1210_ d_lut_OAI21X1
AOAI21X1_71 [_881__bF$buf0 _1075_ _1210_] _1211_ d_lut_OAI21X1
ANOR2X1_70 [_881__bF$buf7 _990_] _1212_ d_lut_NOR2X1
AOR2X2_6 [state_2_ state_3_] _1213_ d_lut_OR2X2
ANOR2X1_71 [_1213_ _1033_] _1215_ d_lut_NOR2X1
AOAI21X1_72 [_1215_ _1192_ _947_] _1216_ d_lut_OAI21X1
AOAI21X1_73 [state_5_ _1031_ _1216_] _1217_ d_lut_OAI21X1
ANOR2X1_72 [_957__bF$buf2 _1111_] _1218_ d_lut_NOR2X1
ANOR2X1_73 [_957__bF$buf1 _1209_] _1219_ d_lut_NOR2X1
ANOR2X1_74 [_1218_ _1219_] _1220_ d_lut_NOR2X1
AOAI21X1_74 [_937__bF$buf3 _971_ _1220_] _1221_ d_lut_OAI21X1
AOAI21X1_75 [_1217_ _1221_ _1212_] _1222_ d_lut_OAI21X1
AINVX1_35 [_1181_] _1223_ d_lut_INVX1
AINVX8_4 [_1064_] _1224_ d_lut_INVX8
ANAND3X1_28 [RDY_bF$buf2 _1066_ _1224_] _1225_ d_lut_NAND3X1
AOAI21X1_76 [RDY_bF$buf1 _885__bF$buf3 _1225_] _1226_ d_lut_OAI21X1
AAOI21X1_12 [_1223_ _1173_ _1226_] _1227_ d_lut_AOI21X1
AAND2X2_13 [_1222_ _1227_] _1228_ d_lut_AND2X2
AAOI21X1_13 [_1010_ _924_ _996_] _1229_ d_lut_AOI21X1
ANAND2X1_73 [_1094_ _1100_] _1230_ d_lut_NAND2X1
AOAI21X1_77 [_924_ _1158_ _1230_] _1231_ d_lut_OAI21X1
ANOR2X1_75 [_1229_ _1231_] _1232_ d_lut_NOR2X1
ANAND2X1_74 [_1142_ _1100_] _1233_ d_lut_NAND2X1
AOAI21X1_78 [_996_ _1170_ _1233_] _1234_ d_lut_OAI21X1
ANAND2X1_75 [_1023_ _904_] _1235_ d_lut_NAND2X1
ANOR2X1_76 [_1203_ _1235_] _1236_ d_lut_NOR2X1
ANAND2X1_76 [_924_ _1236_] _1237_ d_lut_NAND2X1
AOAI21X1_79 [_1149_ _1170_ _1237_] _1238_ d_lut_OAI21X1
ANOR2X1_77 [_1238_ _1234_] _1239_ d_lut_NOR2X1
ANOR2X1_78 [_1203_ _1098_] _1240_ d_lut_NOR2X1
AAOI22X1_8 [_921_ _930_ _924_ _1240_] _1241_ d_lut_AOI22X1
AOAI21X1_80 [_1023_ _1097_ _886__bF$buf3] _1242_ d_lut_OAI21X1
AINVX1_36 [_1242_] _1243_ d_lut_INVX1
ANAND2X1_77 [_1243_ _1241_] _1244_ d_lut_NAND2X1
AAOI21X1_14 [_898_ _1205_ _1244_] _1245_ d_lut_AOI21X1
ANAND3X1_29 [_1232_ _1239_ _1245_] _1246_ d_lut_NAND3X1
ANOR2X1_79 [_1204_ _1099_] _1247_ d_lut_NOR2X1
AOAI21X1_81 [_1164_ _1141_ _929_] _1248_ d_lut_OAI21X1
AOAI21X1_82 [_910__bF$buf0 _917_ _994_] _1249_ d_lut_OAI21X1
ANAND2X1_78 [_1203_ _1249_] _1250_ d_lut_NAND2X1
ANOR2X1_80 [_898_ _1204_] _1251_ d_lut_NOR2X1
AAND2X2_14 [_1251_ _1250_] _1252_ d_lut_AND2X2
AAOI21X1_15 [_1247_ _1248_ _1252_] _1253_ d_lut_AOI21X1
ANOR2X1_81 [_1249_ _1098_] _1254_ d_lut_NOR2X1
AAOI21X1_16 [_1100_ _1093_ _1254_] _1255_ d_lut_AOI21X1
AOAI21X1_83 [_910__bF$buf4 _1002_ _924_] _1256_ d_lut_OAI21X1
AINVX1_37 [_1256_] _1257_ d_lut_INVX1
ANAND2X1_79 [_1165_ _1257_] _1258_ d_lut_NAND2X1
ANOR2X1_82 [_996_ _1258_] _1259_ d_lut_NOR2X1
AINVX2_9 [DIMUX_6_] _1260_ d_lut_INVX2
AOAI21X1_84 [_887_ IRHOLD_6_ _896__bF$buf1] _1261_ d_lut_OAI21X1
AAOI21X1_17 [_887_ _1260_ _1261_] _1262_ d_lut_AOI21X1
ANAND2X1_80 [_1092_ _1262_] _1263_ d_lut_NAND2X1
ANOR2X1_83 [_1256_ _1263_] _1264_ d_lut_NOR2X1
ANAND2X1_81 [_1264_ _1247_] _1265_ d_lut_NAND2X1
AOAI21X1_85 [_996_ _1166_ _1265_] _1266_ d_lut_OAI21X1
ANOR2X1_84 [_1259_ _1266_] _1267_ d_lut_NOR2X1
ANAND3X1_30 [_1253_ _1255_ _1267_] _1268_ d_lut_NAND3X1
AOAI21X1_86 [_1268_ _1246_ _1228_] _1269_ d_lut_OAI21X1
ANAND2X1_82 [_883_ _884_] _1270_ d_lut_NAND2X1
ANOR2X1_85 [_957__bF$buf0 _1270_] _1271_ d_lut_NOR2X1
AOAI21X1_87 [_957__bF$buf4 _1051_ RDY_bF$buf0] _1272_ d_lut_OAI21X1
AOAI21X1_88 [RDY_bF$buf8 _1271_ _1272_] _1273_ d_lut_OAI21X1
ANOR2X1_86 [_962__bF$buf3 _1270_] _1274_ d_lut_NOR2X1
AOAI21X1_89 [_962__bF$buf2 _1051_ RDY_bF$buf7] _1275_ d_lut_OAI21X1
AOAI21X1_90 [RDY_bF$buf6 _1274_ _1275_] _1276_ d_lut_OAI21X1
ANAND2X1_83 [_1276_ _1273_] _1277_ d_lut_NAND2X1
ANOR2X1_87 [_1277_ _1269_] _1278_ d_lut_NOR2X1
AOR2X2_7 [_1161_ _1147_] _1279_ d_lut_OR2X2
ANAND2X1_84 [_881__bF$buf6 _1219_] _1280_ d_lut_NAND2X1
AOAI21X1_91 [_1022__bF$buf1 _1255_ _1280_] _1281_ d_lut_OAI21X1
AINVX1_38 [_942_] _1282_ d_lut_INVX1
ANAND2X1_85 [write_back RDY_bF$buf5] _1283_ d_lut_NAND2X1
AAOI21X1_18 [_1016_ _1283_ _985_] _1284_ d_lut_AOI21X1
AAOI21X1_19 [_1282_ _881__bF$buf5 _1284_] _1285_ d_lut_AOI21X1
AINVX1_39 [_1285_] _1286_ d_lut_INVX1
ANOR2X1_88 [_1286_ _1281_] _1287_ d_lut_NOR2X1
AAND2X2_15 [_1069_ _1134_] _1288_ d_lut_AND2X2
AAND2X2_16 [_1288_ _1083_] _1289_ d_lut_AND2X2
AAND2X2_17 [_1289_ _1185_] _1290_ d_lut_AND2X2
AAND2X2_18 [_1290_ _1106_] _1291_ d_lut_AND2X2
ANAND3X1_31 [_1042_ _1291_ _1287_] _1292_ d_lut_NAND3X1
ANOR3X1_7 [_1019_ _1279_ _1292_] _1293_ d_lut_NOR3X1
ANAND3X1_32 [_1211_ _1293_ _1278_] _878_ d_lut_NAND3X1
AAOI22X1_9 [_1100_ _1142_ _898_ _1205_] _1294_ d_lut_AOI22X1
ANAND3X1_33 [_1241_ _1255_ _1294_] _1295_ d_lut_NAND3X1
AINVX1_40 [_1295_] _1296_ d_lut_INVX1
ANOR2X1_89 [_1235_ _1099_] _1297_ d_lut_NOR2X1
ANOR2X1_90 [_1141_ _1263_] _1298_ d_lut_NOR2X1
ANAND2X1_86 [_1298_ _1297_] _1299_ d_lut_NAND2X1
ANAND3X1_34 [_1237_ _1265_ _1299_] _1300_ d_lut_NAND3X1
AINVX1_41 [_1229_] _1301_ d_lut_INVX1
AAOI21X1_20 [_1100_ _1094_ _1242_] _1302_ d_lut_AOI21X1
ANAND2X1_87 [_1302_ _1301_] _1303_ d_lut_NAND2X1
ANOR3X1_8 [_1167_ _1300_ _1303_] _1304_ d_lut_NOR3X1
ANAND2X1_88 [_1298_ _1247_] _1305_ d_lut_NAND2X1
ANOR2X1_91 [_1259_ _1189_] _1306_ d_lut_NOR2X1
ANAND3X1_35 [_1305_ _1253_ _1306_] _1307_ d_lut_NAND3X1
AINVX1_42 [_1307_] _1308_ d_lut_INVX1
ANAND3X1_36 [_1296_ _1304_ _1308_] _1309_ d_lut_NAND3X1
AINVX1_43 [_1211_] _1310_ d_lut_INVX1
ANOR2X1_92 [_1277_ _1310_] _1311_ d_lut_NOR2X1
ANAND3X1_37 [_1228_ _1311_ _1309_] _1312_ d_lut_NAND3X1
ANAND2X1_89 [_995_ _909_] _1313_ d_lut_NAND2X1
ANOR2X1_93 [_999_ _1313_] _1314_ d_lut_NOR2X1
AOAI21X1_92 [_1254_ _1314_ _886__bF$buf2] _1315_ d_lut_OAI21X1
ANAND3X1_38 [_1280_ _1285_ _1315_] _1316_ d_lut_NAND3X1
ANOR2X1_94 [_1023_ _1097_] _1317_ d_lut_NOR2X1
AAOI22X1_10 [_881__bF$buf4 _1108_ _1206_ _1317_] _1318_ d_lut_AOI22X1
AOAI21X1_93 [_937__bF$buf2 _1027_ RDY_bF$buf4] _1319_ d_lut_OAI21X1
AOAI21X1_94 [RDY_bF$buf3 _1112_ _1319_] _1320_ d_lut_OAI21X1
ANAND2X1_90 [_1320_ _1318_] _1321_ d_lut_NAND2X1
AOAI21X1_95 [_962__bF$buf1 _1027_ RDY_bF$buf2] _1322_ d_lut_OAI21X1
AOAI21X1_96 [RDY_bF$buf1 _1218_ _1322_] _1323_ d_lut_OAI21X1
AOAI21X1_97 [RDY_bF$buf0 _1127_ _1323_] _1324_ d_lut_OAI21X1
ANOR2X1_95 [_1324_ _1321_] _1325_ d_lut_NOR2X1
ANAND3X1_39 [_1207_ _1325_ _1190_] _1326_ d_lut_NAND3X1
ANAND3X1_40 [_886__bF$buf1 _1298_ _1247_] _1327_ d_lut_NAND3X1
ANAND2X1_91 [_881__bF$buf3 _1132_] _1329_ d_lut_NAND2X1
AAND2X2_19 [_1327_ _1329_] _1330_ d_lut_AND2X2
AOAI21X1_98 [_957__bF$buf3 _1031_ RDY_bF$buf8] _1331_ d_lut_OAI21X1
AOAI21X1_99 [RDY_bF$buf7 _1120_ _1331_] _1332_ d_lut_OAI21X1
AAND2X2_20 [_1247_ _1248_] _1333_ d_lut_AND2X2
AOAI21X1_100 [_1252_ _1333_ _886__bF$buf0] _1334_ d_lut_OAI21X1
ANAND3X1_41 [_1330_ _1332_ _1334_] _1335_ d_lut_NAND3X1
ANOR3X1_9 [_1316_ _1326_ _1335_] _1336_ d_lut_NOR3X1
ANAND3X1_42 [_1187_ _1336_ _1139_] _1337_ d_lut_NAND3X1
AOAI21X1_101 [_1022__bF$buf0 _1237_ _1157_] _1338_ d_lut_OAI21X1
ANOR3X1_10 [_1196_ _1277_ _1126_] _1339_ d_lut_NOR3X1
ANAND2X1_92 [_1083_ _1063_] _1340_ d_lut_NAND2X1
ANAND2X1_93 [_1133_ _1134_] _1341_ d_lut_NAND2X1
ANOR2X1_96 [_1341_ _1340_] _1342_ d_lut_NOR2X1
ANAND3X1_43 [_1059_ _1342_ _1339_] _1343_ d_lut_NAND3X1
ANOR3X1_11 [_1030_ _1343_ _1338_] _1344_ d_lut_NOR3X1
ANAND2X1_94 [_1168_ _1172_] _1346_ d_lut_NAND2X1
ANOR2X1_97 [_1147_ _1346_] _1347_ d_lut_NOR2X1
ANOR2X1_98 [_1022__bF$buf3 _1241_] _1348_ d_lut_NOR2X1
ANAND3X1_44 [_1329_ _1332_ _1327_] _1349_ d_lut_NAND3X1
ANOR3X1_12 [_992_ _1349_ _1348_] _1350_ d_lut_NOR3X1
ANAND3X1_45 [_1344_ _1350_ _1347_] _1351_ d_lut_NAND3X1
ANOR2X1_99 [_1351_ _1269_] _1353_ d_lut_NOR2X1
AOAI21X1_102 [_1312_ _1337_ _1353_] _879_ d_lut_OAI21X1
ANAND3X1_46 [_1276_ _1211_ _1018_] _1354_ d_lut_NAND3X1
ANAND2X1_95 [_1078_ _1037_] _1355_ d_lut_NAND2X1
ANOR2X1_100 [_1355_ _1354_] _1356_ d_lut_NOR2X1